
 ===================================================
  XFOIL Version 6.99
  Copyright (C) 2000   Mark Drela, Harold Youngren

  This software comes with ABSOLUTELY NO WARRANTY,
    subject to the GNU General Public License.

  Caveat computor
 ===================================================

 File  xfoil.def  not found

   QUIT    Exit program

  .OPER    Direct operating point(s)
  .MDES    Complex mapping design routine
  .QDES    Surface speed design routine
  .GDES    Geometry design routine

   SAVE f  Write airfoil to labeled coordinate file
   PSAV f  Write airfoil to plain coordinate file
   ISAV f  Write airfoil to ISES coordinate file
   MSAV f  Write airfoil to MSES coordinate file
   REVE    Reverse written-airfoil node ordering

   LOAD f  Read buffer airfoil from coordinate file
   NACA i  Set NACA 4,5-digit airfoil and buffer airfoil
   INTE    Set buffer airfoil by interpolating two airfoils
   NORM    Buffer airfoil normalization toggle
   XYCM rr Change CM reference location, currently  0.25000 0.00000

   BEND    Display structural properties of current airfoil

   PCOP    Set current-airfoil panel nodes directly from buffer airfoil points
   PANE    Set current-airfoil panel nodes ( 160 ) based on curvature
  .PPAR    Show/change paneling

  .PLOP    Plotting options

   WDEF f  Write  current-settings file
   RDEF f  Reread current-settings file
   NAME s  Specify new airfoil name
   NINC    Increment name version number

   Z       Zoom    | (available in all menus)
   U       Unzoom  | 

 XFOIL   c>  
 Labeled airfoil file.  Name:  xfoil                                           

 Number of input coordinate points:  82
 Counterclockwise ordering
 Max thickness =     0.050233  at x =   0.289
 Max camber    =     0.064771  at x =   0.437

  LE  x,y  =   0.00016   0.00155  |   Chord =   0.92218
  TE  x,y  =   0.92217   0.01973  |

 Current airfoil nodes set from buffer airfoil nodes (  82 )

 WARNING: Poor input coordinate distribution
          Excessive panel angle   54.5  at i =  41
          Repaneling with PANE and/or PPAR suggested
           (doing GDES,CADD before repaneling _may_
            improve excessively coarse LE spacing

 XFOIL   c>  
.OPERi   c>   Current iteration limit:          10

Enter new iteration limit   i>  
.OPERi   c>  
 XFOIL   c>  
 XFOIL   c>  
 XFOIL   c>  
.OPERi   c>  
.OPERi   c>  
 Sonic Cp =   -160.75      Sonic Q/Qinf =    14.128


.OPERi   c>  
 M  =    0.0646
 Re =   1548530

.OPERv   c>  
 Polar  1 newly created for accumulation
 Airfoil archived with polar: xfoil                                           

Enter  polar save filename  OR  <return> for no file   s>  
 Polar save file will NOT be written

Enter  polar dump filename  OR  <return> for no file   s>  
 Polar dump file will NOT be written

 Polar accumulation enabled

.OPERva   c>   Calculating unit vorticity distributions ...
 Calculating wake trajectory ...
 Calculating source influence matrix ...

 Solving BL system ...

 Initializing BL ...
    side            1  ...
 MRCHUE: Inverse mode at  30     Hk =   5.646
 MRCHUE: Inverse mode at  31     Hk =   4.452
 MRCHUE: Inverse mode at  32     Hk =   2.500
    side            2  ...
 MRCHUE: Inverse mode at   3     Hk =  11.473
 MRCHUE: Inverse mode at   4     Hk =   2.500
 MRCHUE: Inverse mode at  44     Hk =   1.646

 Side 1  free  transition at x/c =  0.7083   31
 Side 2  free  transition at x/c =  0.0084    4

   1   rms: 0.2198E+00   max: 0.1882E+01   D at    4  2   RLX: 0.607
       a =  0.000      CL =  0.6875
      Cm = -0.1631     CD =  0.00648   =>   CDf =  0.00489    CDp =  0.00159

 MRCHDU: Convergence failed at  32  side 1    Res =  0.4798E+01
 MRCHDU: Convergence failed at   5  side 2    Res =  0.1201E+02
 MRCHDU: Convergence failed at   6  side 2    Res =  0.2996E+02
 MRCHDU: Convergence failed at   7  side 2    Res =  0.4040E+02
 MRCHDU: Convergence failed at   8  side 2    Res =  0.7528E+02
 MRCHDU: Convergence failed at   9  side 2    Res =  0.2038E+03
 MRCHDU: Convergence failed at  10  side 2    Res =  0.5616E+03
 MRCHDU: Convergence failed at  11  side 2    Res =  0.1157E+03
 MRCHDU: Convergence failed at  12  side 2    Res =  0.1767E+03
 MRCHDU: Convergence failed at  13  side 2    Res =  0.1226E+03
 MRCHDU: Convergence failed at  14  side 2    Res =  0.9742E+02
 MRCHDU: Convergence failed at  15  side 2    Res =  0.1144E+03
 MRCHDU: Convergence failed at  16  side 2    Res =  0.9816E+02
 MRCHDU: Convergence failed at  17  side 2    Res =  0.9392E+02
 MRCHDU: Convergence failed at  18  side 2    Res =  0.9371E+02
 MRCHDU: Convergence failed at  19  side 2    Res =  0.8965E+02
 MRCHDU: Convergence failed at  20  side 2    Res =  0.9489E+02
 MRCHDU: Convergence failed at  21  side 2    Res =  0.8794E+02
 MRCHDU: Convergence failed at  22  side 2    Res =  0.8510E+02
 MRCHDU: Convergence failed at  23  side 2    Res =  0.8812E+02
 MRCHDU: Convergence failed at  24  side 2    Res =  0.8980E+02
 MRCHDU: Convergence failed at  25  side 2    Res =  0.8754E+02
 MRCHDU: Convergence failed at  26  side 2    Res =  0.8816E+02
 MRCHDU: Convergence failed at  27  side 2    Res =  0.8961E+02
 MRCHDU: Convergence failed at  28  side 2    Res =  0.7887E+02
 MRCHDU: Convergence failed at  29  side 2    Res =  0.7973E+02
 MRCHDU: Convergence failed at  30  side 2    Res =  0.7992E+02
 MRCHDU: Convergence failed at  31  side 2    Res =  0.8039E+02
 MRCHDU: Convergence failed at  32  side 2    Res =  0.8085E+02
 MRCHDU: Convergence failed at  33  side 2    Res =  0.8053E+02
 MRCHDU: Convergence failed at  34  side 2    Res =  0.7995E+02
 MRCHDU: Convergence failed at  35  side 2    Res =  0.1059E+03
 MRCHDU: Convergence failed at  36  side 2    Res =  0.8391E+02
 MRCHDU: Convergence failed at  37  side 2    Res =  0.8199E+02
 MRCHDU: Convergence failed at  38  side 2    Res =  0.7946E+02
 MRCHDU: Convergence failed at  39  side 2    Res =  0.7687E+02
 MRCHDU: Convergence failed at  40  side 2    Res =  0.1004E+03
 MRCHDU: Convergence failed at  41  side 2    Res =  0.7719E+02
 MRCHDU: Convergence failed at  42  side 2    Res =  0.1235E+03
 Side 1  free  transition at x/c =  0.7305   32
 Side 2  free  transition at x/c =  0.0137    5

   2   rms: 0.1872E+01   max: 0.4842E+01   C at    6  2   RLX: 0.111
       a =  0.000      CL = -0.5235
      Cm =  0.1148     CD =  0.00421   =>   CDf =  0.00204    CDp =  0.00216

 Side 1  free  transition at x/c =  0.7375   32
 Side 2  free  transition at x/c =  0.0170    5

   3   rms: 0.6283E+00   max: -.7551E+01   T at    5  2   RLX: 0.066
       a =  0.000      CL = -0.1329
      Cm =  0.0116     CD =  0.07119   =>   CDf =  0.00234    CDp =  0.06885

 Side 1  free  transition at x/c =  0.7403   32
 Side 2  free  transition at x/c =  0.0156    5
 idif Ue xi dudx           1   1.3960016      4.60791588E-03   302.95728    
 Uenew xinew           2  3.97268543E-03  1.31130219E-05

   4   rms: 0.4650E+00   max: -.2532E+01   T at    5  2   RLX: 0.197
       a =  0.000      CL = -0.0605
      Cm = -0.0067     CD =  0.07015   =>   CDf =  0.00232    CDp =  0.06783

 Side 1  free  transition at x/c =  0.7451   32
 Side 2  free  transition at x/c =  0.0152    6

   5   rms: 0.3116E+01   max: 0.3736E+02   T at    2  2   RLX: 0.030
       a =  0.000      CL = -0.0646
      Cm = -0.0060     CD =  0.07209   =>   CDf =  0.00237    CDp =  0.06972

 Side 1  free  transition at x/c =  0.7465   32
 Side 2  free  transition at x/c =  0.0130    6

   6   rms: 0.5486E+00   max: 0.6753E+01   C at    6  2   RLX: 0.222
       a =  0.000      CL = -0.0022
      Cm = -0.0197     CD =  0.06819   =>   CDf =  0.00238    CDp =  0.06581

 TRCHEK2: N2 convergence failed.
 x:  0.01423  0.02130  0.02170  N:  8.606  9.000  9.000  Nx: 406.612   dN:-0.153E+01
 TRCHEK2: N2 convergence failed.
 x:  0.01423  0.02130  0.02170  N:  8.606  9.000  9.000  Nx: 381.567   dN:-0.221E+01
 TRCHEK2: N2 convergence failed.
 x:  0.01423  0.02130  0.02170  N:  8.606  9.000  9.000  Nx: 394.142   dN:-0.179E+01
 TRCHEK2: N2 convergence failed.
 x:  0.01423  0.02130  0.02170  N:  8.606  9.000  9.000  Nx: 408.717   dN:-0.150E+01
 TRCHEK2: N2 convergence failed.
 x:  0.01423  0.02130  0.02170  N:  8.606  9.000  9.000  Nx: 383.489   dN:-0.213E+01
 TRCHEK2: N2 convergence failed.
 x:  0.01423  0.02130  0.02170  N:  8.606  9.000  9.000  Nx: 396.592   dN:-0.173E+01
 TRCHEK2: N2 convergence failed.
 x:  0.01423  0.02130  0.02170  N:  8.606  9.000  9.000  Nx: 411.430   dN:-0.146E+01
 TRCHEK2: N2 convergence failed.
 x:  0.01423  0.02130  0.02170  N:  8.606  9.000  9.000  Nx: 385.532   dN:-0.205E+01
 TRCHEK2: N2 convergence failed.
 x:  0.01423  0.02130  0.02170  N:  8.606  9.000  9.000  Nx: 398.862   dN:-0.168E+01
 TRCHEK2: N2 convergence failed.
 x:  0.01423  0.02130  0.02170  N:  8.606  9.000  9.000  Nx: 414.485   dN:-0.142E+01
 MRCHDU: Convergence failed at   6  side 2    Res =  0.6234E+00
 Side 1  free  transition at x/c =  0.7628   32
 Side 2  free  transition at x/c =  0.0126    6

   7   rms: 0.4942E+00   max: 0.6477E+01   T at    6  2   RLX: 0.232
       a =  0.000      CL =  0.2508
      Cm = -0.0779     CD =  0.05881   =>   CDf =  0.00224    CDp =  0.05656

 Side 1  free  transition at x/c =  0.7647   32
 Side 2  free  transition at x/c =  0.0112    5

   8   rms: 0.3659E+00   max: -.1186E+01   T at    6  2   RLX: 0.422
       a =  0.000      CL =  0.2546
      Cm = -0.0748     CD =  0.05354   =>   CDf =  0.00221    CDp =  0.05133

 Side 1  free  transition at x/c =  0.7692   32
 Side 2  free  transition at x/c =  0.0108    5

   9   rms: 0.3496E+00   max: -.1708E+01   T at    6  2   RLX: 0.293
       a =  0.000      CL =  0.3070
      Cm = -0.0899     CD =  0.04875   =>   CDf =  0.00215    CDp =  0.04660

 Side 1  free  transition at x/c =  0.7677   32
 Side 2  free  transition at x/c =  0.0104    5

  10   rms: 0.3227E+00   max: -.9036E+00   D at   43  2   RLX: 0.553
       a =  0.000      CL =  0.3763
      Cm = -0.1090     CD =  0.03664   =>   CDf =  0.00212    CDp =  0.03452

 Side 1  free  transition at x/c =  0.7635   32
 Side 2  free  transition at x/c =  0.0100    5

  11   rms: 0.3672E+00   max: -.1243E+01   D at   45  2   RLX: 0.402
       a =  0.000      CL =  0.4338
      Cm = -0.1300     CD =  0.03102   =>   CDf =  0.00209    CDp =  0.02893

 Side 1  free  transition at x/c =  0.7588   32
 Side 2  free  transition at x/c =  0.0090    5

  12   rms: 0.4966E+00   max: -.1779E+01   D at   41  2   RLX: 0.281
       a =  0.000      CL =  0.4876
      Cm = -0.1487     CD =  0.02619   =>   CDf =  0.00209    CDp =  0.02411

 Side 1  free  transition at x/c =  0.7566   32
 Side 2  free  transition at x/c =  0.0094    5

  13   rms: 0.6767E+00   max: -.2243E+01   D at   41  2   RLX: 0.223
       a =  0.000      CL =  0.5396
      Cm = -0.1602     CD =  0.01980   =>   CDf =  0.00218    CDp =  0.01761

 Side 1  free  transition at x/c =  0.7573   32
 Side 2  free  transition at x/c =  0.0105    5

  14   rms: 0.1854E+01   max: 0.9682E+01   T at    6  2   RLX: 0.097
       a =  0.000      CL =  0.5708
      Cm = -0.1660     CD =  0.01669   =>   CDf =  0.00231    CDp =  0.01438

 Side 1  free  transition at x/c =  0.7586   32
 Side 2  free  transition at x/c =  0.0117    6

  15   rms: 0.2773E+01   max: -.1649E+02   T at    6  2   RLX: 0.030
       a =  0.000      CL =  0.5341
      Cm = -0.1598     CD =  0.02258   =>   CDf =  0.00232    CDp =  0.02026

 MRCHDU: Convergence failed at  15  side 2    Res =  0.8684E+00
 MRCHDU: Convergence failed at  16  side 2    Res =  0.1616E+01
 MRCHDU: Convergence failed at  17  side 2    Res =  0.3966E+01
 MRCHDU: Convergence failed at  18  side 2    Res =  0.1752E+02
 MRCHDU: Convergence failed at  19  side 2    Res =  0.1855E+02
 MRCHDU: Convergence failed at  20  side 2    Res =  0.1105E+02
 MRCHDU: Convergence failed at  21  side 2    Res =  0.9986E+01
 MRCHDU: Convergence failed at  22  side 2    Res =  0.4636E+01
 MRCHDU: Convergence failed at  23  side 2    Res =  0.1871E+02
 MRCHDU: Convergence failed at  24  side 2    Res =  0.6836E+01
 MRCHDU: Convergence failed at  25  side 2    Res =  0.6799E+01
 MRCHDU: Convergence failed at  26  side 2    Res =  0.7360E+01
 MRCHDU: Convergence failed at  27  side 2    Res =  0.1015E+02
 MRCHDU: Convergence failed at  28  side 2    Res =  0.1242E+02
 MRCHDU: Convergence failed at  29  side 2    Res =  0.1260E+02
 MRCHDU: Convergence failed at  30  side 2    Res =  0.1208E+02
 MRCHDU: Convergence failed at  31  side 2    Res =  0.5508E+01
 MRCHDU: Convergence failed at  32  side 2    Res =  0.5172E+01
 MRCHDU: Convergence failed at  33  side 2    Res =  0.5948E+01
 MRCHDU: Convergence failed at  34  side 2    Res =  0.7043E+01
 MRCHDU: Convergence failed at  35  side 2    Res =  0.9232E+01
 MRCHDU: Convergence failed at  36  side 2    Res =  0.1272E+02
 MRCHDU: Convergence failed at  37  side 2    Res =  0.2423E+02
 MRCHDU: Convergence failed at  38  side 2    Res =  0.6458E+02
 MRCHDU: Convergence failed at  39  side 2    Res =  0.8226E+02
 MRCHDU: Convergence failed at  40  side 2    Res =  0.4745E+01
 MRCHDU: Convergence failed at  41  side 2    Res =  0.7500E+01
 MRCHDU: Convergence failed at  42  side 2    Res =  0.8648E+01
 MRCHDU: Convergence failed at  43  side 2    Res =  0.1424E+02
 Side 1  free  transition at x/c =  0.7588   32
 Side 2  free  transition at x/c =  0.0120    6

  16   rms: 0.4258E+00   max: -.1132E+01   D at   42  2   RLX: 0.442
       a =  0.000      CL =  0.3183
      Cm = -0.0927     CD =  0.01628   =>   CDf =  0.00212    CDp =  0.01417

 MRCHDU: Convergence failed at  14  side 2    Res =  0.1265E+04
 MRCHDU: Convergence failed at  15  side 2    Res =  0.3907E+01
 MRCHDU: Convergence failed at  16  side 2    Res =  0.5664E+01
 MRCHDU: Convergence failed at  17  side 2    Res =  0.2061E+01
 MRCHDU: Convergence failed at  18  side 2    Res =  0.1247E+01
 MRCHDU: Convergence failed at  19  side 2    Res =  0.1528E+01
 MRCHDU: Convergence failed at  20  side 2    Res =  0.4883E+01
 MRCHDU: Convergence failed at  21  side 2    Res =  0.1483E+02
 MRCHDU: Convergence failed at  22  side 2    Res =  0.1959E+01
 MRCHDU: Convergence failed at  23  side 2    Res =  0.1538E+01
 MRCHDU: Convergence failed at  24  side 2    Res =  0.2428E+01
 MRCHDU: Convergence failed at  25  side 2    Res =  0.1219E+01
 MRCHDU: Convergence failed at  26  side 2    Res =  0.4530E+01
 MRCHDU: Convergence failed at  27  side 2    Res =  0.2264E+01
 MRCHDU: Convergence failed at  28  side 2    Res =  0.1402E+01
 MRCHDU: Convergence failed at  29  side 2    Res =  0.3222E+01
 MRCHDU: Convergence failed at  30  side 2    Res =  0.4278E+01
 MRCHDU: Convergence failed at  31  side 2    Res =  0.1560E+01
 MRCHDU: Convergence failed at  32  side 2    Res =  0.1023E+02
 MRCHDU: Convergence failed at  33  side 2    Res =  0.1619E+01
 MRCHDU: Convergence failed at  34  side 2    Res =  0.5680E+01
 MRCHDU: Convergence failed at  35  side 2    Res =  0.2307E+02
 MRCHDU: Convergence failed at  36  side 2    Res =  0.1681E+02
 MRCHDU: Convergence failed at  37  side 2    Res =  0.5039E+01
 MRCHDU: Convergence failed at  38  side 2    Res =  0.2257E+01
 MRCHDU: Convergence failed at  39  side 2    Res =  0.1358E+02
 MRCHDU: Convergence failed at  40  side 2    Res =  0.3062E+01
 MRCHDU: Convergence failed at  41  side 2    Res =  0.2374E+01
 MRCHDU: Convergence failed at  42  side 2    Res =  0.2407E+01
 MRCHDU: Convergence failed at  43  side 2    Res =  0.9291E+01
 Side 1  free  transition at x/c =  0.7610   32
 Side 2  free  transition at x/c =  0.0116    5

  17   rms: 0.4653E+00   max: -.7706E+00   D at   44  2   RLX: 0.497
       a =  0.000      CL =  0.3551
      Cm = -0.0959     CD =  0.06436   =>   CDf =  0.00221    CDp =  0.06216

 MRCHDU: Convergence failed at   6  side 2    Res =  0.9977E+02
 MRCHDU: Convergence failed at   7  side 2    Res =  0.1585E+03
 MRCHDU: Convergence failed at   8  side 2    Res =  0.7096E+04
 MRCHDU: Convergence failed at   9  side 2    Res =  0.2795E+03
 MRCHDU: Convergence failed at  10  side 2    Res =  0.2094E+03
 MRCHDU: Convergence failed at  11  side 2    Res =  0.1995E+03
 MRCHDU: Convergence failed at  12  side 2    Res =  0.2575E+03
 MRCHDU: Convergence failed at  13  side 2    Res =  0.3436E+03
 MRCHDU: Convergence failed at  14  side 2    Res =  0.3502E+03
 MRCHDU: Convergence failed at  15  side 2    Res =  0.3555E+03
 MRCHDU: Convergence failed at  16  side 2    Res =  0.5207E+03
 MRCHDU: Convergence failed at  17  side 2    Res =  0.5267E+03
 MRCHDU: Convergence failed at  18  side 2    Res =  0.5312E+03
 MRCHDU: Convergence failed at  19  side 2    Res =  0.4311E+04
 MRCHDU: Convergence failed at  20  side 2    Res =  0.4515E+04
 MRCHDU: Convergence failed at  21  side 2    Res =  0.4666E+04
 MRCHDU: Convergence failed at  22  side 2    Res =  0.4828E+04
 MRCHDU: Convergence failed at  23  side 2    Res =  0.6753E+03
 MRCHDU: Convergence failed at  24  side 2    Res =  0.6697E+03
 MRCHDU: Convergence failed at  25  side 2    Res =  0.6628E+03
 MRCHDU: Convergence failed at  26  side 2    Res =  0.6593E+03
 MRCHDU: Convergence failed at  27  side 2    Res =  0.5345E+03
 MRCHDU: Convergence failed at  28  side 2    Res =  0.2702E+03
 MRCHDU: Convergence failed at  29  side 2    Res =  0.2685E+03
 MRCHDU: Convergence failed at  30  side 2    Res =  0.2668E+03
 MRCHDU: Convergence failed at  31  side 2    Res =  0.2650E+03
 MRCHDU: Convergence failed at  32  side 2    Res =  0.3538E+03
 MRCHDU: Convergence failed at  33  side 2    Res =  0.3375E+03
 MRCHDU: Convergence failed at  34  side 2    Res =  0.2412E+03
 MRCHDU: Convergence failed at  35  side 2    Res =  0.4062E+03
 MRCHDU: Convergence failed at  36  side 2    Res =  0.3735E+03
 MRCHDU: Convergence failed at  37  side 2    Res =  0.3802E+03
 MRCHDU: Convergence failed at  38  side 2    Res =  0.2083E+05
 MRCHDU: Convergence failed at  39  side 2    Res =  0.2456E+03
 MRCHDU: Convergence failed at  40  side 2    Res =  0.4064E+03
 MRCHDU: Convergence failed at  41  side 2    Res =  0.4222E+03
 MRCHDU: Convergence failed at  42  side 2    Res =  0.4419E+03
 MRCHDU: Convergence failed at  43  side 2    Res =  0.4640E+03
 MRCHDU: Convergence failed at  45  side 2    Res =  0.2093E+01
 MRCHDU: Convergence failed at  46  side 2    Res =  0.3757E+01
 MRCHDU: Convergence failed at  47  side 2    Res =  0.3369E+01
 MRCHDU: Convergence failed at  48  side 2    Res =  0.3026E+01
 MRCHDU: Convergence failed at  49  side 2    Res =  0.2695E+01
 MRCHDU: Convergence failed at  50  side 2    Res =  0.2328E+01
 MRCHDU: Convergence failed at  51  side 2    Res =  0.1923E+01
 MRCHDU: Convergence failed at  52  side 2    Res =  0.1454E+01
 MRCHDU: Convergence failed at  53  side 2    Res =  0.9481E+00
 MRCHDU: Convergence failed at  54  side 2    Res =  0.4670E+00
 MRCHDU: Convergence failed at  55  side 2    Res =  0.1479E-01
 Side 1  free  transition at x/c =  0.7616   32
 Side 2  free  transition at x/c =  0.0107    5

  18   rms: 0.9659E+00   max: 0.2706E+01   C at   55  2   RLX: 0.280
       a =  0.000      CL = -0.4863
      Cm =  0.1063     CD =  0.00355   =>   CDf =  0.00193    CDp =  0.00162

 Side 1  free  transition at x/c =  0.7699   32
 Side 2  free  transition at x/c =  0.0106    5

  19   rms: 0.7602E+00   max: 0.4777E+01   D at   52  2   RLX: 0.189
       a =  0.000      CL = -0.2397
      Cm =  0.0339     CD =  0.10025   =>   CDf =  0.00215    CDp =  0.09811

 Side 1  free  transition at x/c =  0.8074   34
 Side 2  free  transition at x/c =  0.0087    5

  20   rms: 0.4918E+00   max: 0.1295E+01   T at    5  2   RLX: 0.411
       a =  0.000      CL = -0.0130
      Cm = -0.0230     CD =  0.11172   =>   CDf =  0.00217    CDp =  0.10955

 Side 1  free  transition at x/c =  0.8562   35
 Side 2  free  transition at x/c =  0.0071    5

  21   rms: 0.4274E+00   max: -.9716E+00   C at   54  2   RLX: 0.515
       a =  0.000      CL =  0.1973
      Cm = -0.0674     CD =  0.08454   =>   CDf =  0.00204    CDp =  0.08250

 Side 1  free  transition at x/c =  0.8356   34
 Side 2  free  transition at x/c =  0.0075    5

  22   rms: 0.3701E+00   max: -.1217E+01   D at   54  2   RLX: 0.411
       a =  0.000      CL =  0.2765
      Cm = -0.0858     CD =  0.08294   =>   CDf =  0.00207    CDp =  0.08087

 Side 1  free  transition at x/c =  0.8173   34
 Side 2  free  transition at x/c =  0.0075    5

  23   rms: 0.3772E+00   max: -.1484E+01   D at   52  2   RLX: 0.337
       a =  0.000      CL =  0.2953
      Cm = -0.0938     CD =  0.06957   =>   CDf =  0.00207    CDp =  0.06750

 Side 1  free  transition at x/c =  0.8059   33
 Side 2  free  transition at x/c =  0.0070    5

  24   rms: 0.4235E+00   max: -.1573E+01   D at   52  2   RLX: 0.318
       a =  0.000      CL =  0.2694
      Cm = -0.0950     CD =  0.05971   =>   CDf =  0.00208    CDp =  0.05763

 Side 1  free  transition at x/c =  0.7999   33
 Side 2  free  transition at x/c =  0.0063    5

  25   rms: 0.4595E+00   max: -.1958E+01   D at   51  2   RLX: 0.255
       a =  0.000      CL =  0.2563
      Cm = -0.0981     CD =  0.05062   =>   CDf =  0.00204    CDp =  0.04857

 Side 1  free  transition at x/c =  0.7954   33
 Side 2  free  transition at x/c =  0.0060    5

  26   rms: 0.4692E+00   max: -.2279E+01   D at   51  2   RLX: 0.219
       a =  0.000      CL =  0.2598
      Cm = -0.1037     CD =  0.04299   =>   CDf =  0.00203    CDp =  0.04096

 Side 1  free  transition at x/c =  0.7914   33
 Side 2  free  transition at x/c =  0.0059    5

  27   rms: 0.5129E+00   max: -.2444E+01   D at   49  2   RLX: 0.205
       a =  0.000      CL =  0.2848
      Cm = -0.1130     CD =  0.03574   =>   CDf =  0.00203    CDp =  0.03370

 Side 1  free  transition at x/c =  0.7867   33
 Side 2  free  transition at x/c =  0.0061    5

  28   rms: 0.5642E+00   max: -.2358E+01   D at   50  2   RLX: 0.212
       a =  0.000      CL =  0.3281
      Cm = -0.1256     CD =  0.02922   =>   CDf =  0.00205    CDp =  0.02717

 Side 1  free  transition at x/c =  0.7805   33
 Side 2  free  transition at x/c =  0.0064    5

  29   rms: 0.6142E+00   max: -.2216E+01   D at   45  2   RLX: 0.226
       a =  0.000      CL =  0.3739
      Cm = -0.1399     CD =  0.02394   =>   CDf =  0.00207    CDp =  0.02187

 Side 1  free  transition at x/c =  0.7737   32
 Side 2  free  transition at x/c =  0.0067    5

  30   rms: 0.7213E+00   max: 0.2468E+01   D at   41  1   RLX: 0.232
       a =  0.000      CL =  0.3911
      Cm = -0.1491     CD =  0.02093   =>   CDf =  0.00209    CDp =  0.01883

 MRCHDU: Convergence failed at  45  side 2    Res =  0.9868E-01
 MRCHDU: Convergence failed at  46  side 2    Res =  0.3545E-01
 MRCHDU: Convergence failed at  47  side 2    Res =  0.3115E+01
 Side 1  free  transition at x/c =  0.7663   32
 Side 2  free  transition at x/c =  0.0066    5

  31   rms: 0.5939E+00   max: -.2014E+01   D at   39  2   RLX: 0.248
       a =  0.000      CL =  0.3657
      Cm = -0.1403     CD =  0.01797   =>   CDf =  0.00216    CDp =  0.01582

 MRCHDU: Convergence failed at  45  side 2    Res =  0.1220E+00
 Side 1  free  transition at x/c =  0.7577   32
 Side 2  free  transition at x/c =  0.0063    5

  32   rms: 0.5999E+00   max: -.2085E+01   D at   41  2   RLX: 0.240
       a =  0.000      CL =  0.3690
      Cm = -0.1369     CD =  0.01556   =>   CDf =  0.00229    CDp =  0.01327

 Side 1  free  transition at x/c =  0.7552   32
 Side 2  free  transition at x/c =  0.0064    5

  33   rms: 0.7196E+00   max: -.2183E+01   D at   42  2   RLX: 0.229
       a =  0.000      CL =  0.3965
      Cm = -0.1375     CD =  0.01265   =>   CDf =  0.00252    CDp =  0.01013

 Side 1  free  transition at x/c =  0.7563   32
 Side 2  free  transition at x/c =  0.0067    5

  34   rms: 0.8193E+00   max: -.2143E+01   D at   42  2   RLX: 0.233
       a =  0.000      CL =  0.4499
      Cm = -0.1438     CD =  0.01035   =>   CDf =  0.00275    CDp =  0.00759

 Side 1  free  transition at x/c =  0.7603   32
 Side 2  free  transition at x/c =  0.0075    5

  35   rms: 0.5917E+00   max: -.1758E+01   D at   43  2   RLX: 0.284
       a =  0.000      CL =  0.4884
      Cm = -0.1468     CD =  0.00989   =>   CDf =  0.00295    CDp =  0.00694

 Side 1  free  transition at x/c =  0.7627   32
 Side 2  free  transition at x/c =  0.0085    5

  36   rms: 0.5176E+00   max: -.1535E+01   D at   43  2   RLX: 0.326
       a =  0.000      CL =  0.5344
      Cm = -0.1498     CD =  0.00913   =>   CDf =  0.00319    CDp =  0.00593

 Side 1  free  transition at x/c =  0.7653   32
 Side 2  free  transition at x/c =  0.0105    5

  37   rms: 0.3214E+00   max: -.3025E+01   T at    5  2   RLX: 0.165
       a =  0.000      CL =  0.5516
      Cm = -0.1511     CD =  0.01079   =>   CDf =  0.00331    CDp =  0.00748

 MRCHDU: Convergence failed at  19  side 2    Res =  0.1546E+01
 MRCHDU: Convergence failed at  20  side 2    Res =  0.9035E+00
 MRCHDU: Convergence failed at  21  side 2    Res =  0.1333E+01
 MRCHDU: Convergence failed at  22  side 2    Res =  0.1739E+01
 MRCHDU: Convergence failed at  23  side 2    Res =  0.1718E+01
 MRCHDU: Convergence failed at  24  side 2    Res =  0.2672E+01
 MRCHDU: Convergence failed at  25  side 2    Res =  0.8716E+01
 MRCHDU: Convergence failed at  26  side 2    Res =  0.2655E+01
 MRCHDU: Convergence failed at  27  side 2    Res =  0.2192E+01
 MRCHDU: Convergence failed at  28  side 2    Res =  0.2032E+01
 MRCHDU: Convergence failed at  29  side 2    Res =  0.2030E+01
 MRCHDU: Convergence failed at  30  side 2    Res =  0.2229E+01
 MRCHDU: Convergence failed at  31  side 2    Res =  0.2702E+01
 MRCHDU: Convergence failed at  32  side 2    Res =  0.5257E+01
 MRCHDU: Convergence failed at  33  side 2    Res =  0.1293E+01
 MRCHDU: Convergence failed at  34  side 2    Res =  0.1228E+01
 Side 1  free  transition at x/c =  0.7661   32
 Side 2  free  transition at x/c =  0.0115    5

  38   rms: 0.5638E+00   max: -.1930E+01   D at   42  2   RLX: 0.259
       a =  0.000      CL =  0.4675
      Cm = -0.1358     CD =  0.01752   =>   CDf =  0.00233    CDp =  0.01520

 Side 1  free  transition at x/c =  0.7642   32
 Side 2  free  transition at x/c =  0.0107    5

  39   rms: 0.2784E+00   max: -.3253E+01   T at    5  2   RLX: 0.154
       a =  0.000      CL =  0.4982
      Cm = -0.1395     CD =  0.01005   =>   CDf =  0.00386    CDp =  0.00619

 Side 1  free  transition at x/c =  0.7652   32
 Side 2  free  transition at x/c =  0.0102    5

  40   rms: 0.2245E+00   max: -.1185E+01   T at    5  2   RLX: 0.422
       a =  0.000      CL =  0.5662
      Cm = -0.1476     CD =  0.00870   =>   CDf =  0.00394    CDp =  0.00477

 Side 1  free  transition at x/c =  0.7675   32
 Side 2  free  transition at x/c =  0.0100    5

  41   rms: 0.2056E+00   max: -.7854E+00   D at    5  2   RLX: 0.637
       a =  0.000      CL =  0.6284
      Cm = -0.1552     CD =  0.00832   =>   CDf =  0.00389    CDp =  0.00443

 Side 1  free  transition at x/c =  0.7695   32
 Side 2  free  transition at x/c =  0.0110    5

  42   rms: 0.1450E+00   max: -.6930E+00   D at    5  2   RLX: 0.721
       a =  0.000      CL =  0.6565
      Cm = -0.1584     CD =  0.00856   =>   CDf =  0.00391    CDp =  0.00465

 Side 1  free  transition at x/c =  0.7701   33
 Side 2  free  transition at x/c =  0.0115    4

  43   rms: 0.8262E-01   max: -.5966E+00   T at    2  1   RLX: 0.838
       a =  0.000      CL =  0.6667
      Cm = -0.1595     CD =  0.00844   =>   CDf =  0.00411    CDp =  0.00433

 MRCHDU: Convergence failed at   7  side 2    Res =  0.2675E+02
 MRCHDU: Convergence failed at   8  side 2    Res =  0.4583E+02
 MRCHDU: Convergence failed at   9  side 2    Res =  0.9628E+02
 MRCHDU: Convergence failed at  10  side 2    Res =  0.1021E+03
 MRCHDU: Convergence failed at  11  side 2    Res =  0.6994E+02
 MRCHDU: Convergence failed at  12  side 2    Res =  0.7236E+02
 MRCHDU: Convergence failed at  13  side 2    Res =  0.8622E+02
 MRCHDU: Convergence failed at  14  side 2    Res =  0.1001E+03
 MRCHDU: Convergence failed at  15  side 2    Res =  0.1126E+03
 MRCHDU: Convergence failed at  16  side 2    Res =  0.1162E+03
 MRCHDU: Convergence failed at  17  side 2    Res =  0.1054E+03
 MRCHDU: Convergence failed at  18  side 2    Res =  0.1024E+03
 MRCHDU: Convergence failed at  19  side 2    Res =  0.9902E+02
 MRCHDU: Convergence failed at  20  side 2    Res =  0.1044E+03
 MRCHDU: Convergence failed at  21  side 2    Res =  0.1082E+03
 MRCHDU: Convergence failed at  22  side 2    Res =  0.1032E+03
 MRCHDU: Convergence failed at  23  side 2    Res =  0.1034E+03
 MRCHDU: Convergence failed at  24  side 2    Res =  0.1029E+03
 MRCHDU: Convergence failed at  25  side 2    Res =  0.9697E+02
 MRCHDU: Convergence failed at  26  side 2    Res =  0.9605E+02
 MRCHDU: Convergence failed at  27  side 2    Res =  0.9607E+02
 MRCHDU: Convergence failed at  28  side 2    Res =  0.9563E+02
 MRCHDU: Convergence failed at  29  side 2    Res =  0.9546E+02
 MRCHDU: Convergence failed at  30  side 2    Res =  0.9946E+02
 MRCHDU: Convergence failed at  31  side 2    Res =  0.9836E+02
 MRCHDU: Convergence failed at  32  side 2    Res =  0.9705E+02
 MRCHDU: Convergence failed at  33  side 2    Res =  0.9509E+02
 MRCHDU: Convergence failed at  34  side 2    Res =  0.9295E+02
 MRCHDU: Convergence failed at  35  side 2    Res =  0.1094E+03
 MRCHDU: Convergence failed at  36  side 2    Res =  0.1125E+03
 MRCHDU: Convergence failed at  37  side 2    Res =  0.1078E+03
 MRCHDU: Convergence failed at  38  side 2    Res =  0.1089E+03
 MRCHDU: Convergence failed at  39  side 2    Res =  0.5680E+03
 MRCHDU: Convergence failed at  40  side 2    Res =  0.9815E+03
 MRCHDU: Convergence failed at  41  side 2    Res =  0.1630E+03
 MRCHDU: Convergence failed at  42  side 2    Res =  0.3159E+03
 MRCHDU: Convergence failed at  44  side 2    Res =  0.4276E+01
 Side 1  free  transition at x/c =  0.7702   33
 Side 2  free  transition at x/c =  0.0370    7

  44   rms: 0.2187E+01   max: 0.1943E+02   T at    7  2   RLX: 0.040
       a =  0.000      CL = -0.2622
      Cm =  0.0598     CD =  0.00433   =>   CDf =  0.00194    CDp =  0.00239

 Side 1  free  transition at x/c =  0.7704   33
 Side 2  free  transition at x/c =  0.0391    7

  45   rms: 0.3912E+01   max: -.5020E+02   T at    8  2   RLX: 0.010
       a =  0.000      CL =  0.0826
      Cm = -0.0304     CD =  0.08285   =>   CDf =  0.00214    CDp =  0.08071

 Side 1  free  transition at x/c =  0.7706   33
 Side 2  free  transition at x/c =  0.0372    7

  46   rms: 0.4707E+01   max: -.7234E+02   T at    7  2   RLX: 0.007
       a =  0.000      CL =  0.0846
      Cm = -0.0293     CD =  0.08449   =>   CDf =  0.00214    CDp =  0.08235

 Side 1  free  transition at x/c =  0.7707   33
 Side 2  free  transition at x/c =  0.0620    9

  47   rms: 0.2763E+01   max: -.4546E+02   T at    9  2   RLX: 0.011
       a =  0.000      CL =  0.0926
      Cm = -0.0317     CD =  0.08276   =>   CDf =  0.00213    CDp =  0.08063

 TRCHEK2: N2 convergence failed.
 x:  0.05476  0.06164  0.06956  N:  8.524  9.000  9.438  Nx: 159.704   dN:-0.283E+01
 TRCHEK2: N2 convergence failed.
 x:  0.05476  0.06547  0.06956  N:  8.524  9.000  9.137  Nx:  92.615   dN:-0.114E+01
 TRCHEK2: N2 convergence failed.
 x:  0.05476  0.06956  0.06956  N:  8.524  9.000  9.359  Nx:  56.349   dN: 0.359E+00
 TRCHEK2: N2 convergence failed.
 x:  0.05476  0.06494  0.06956  N:  8.524  9.000  9.166  Nx: 104.873   dN:-0.122E+01
 TRCHEK2: N2 convergence failed.
 x:  0.05476  0.06956  0.06956  N:  8.524  9.000  9.433  Nx:  61.332   dN: 0.433E+00
 TRCHEK2: N2 convergence failed.
 x:  0.05476  0.06283  0.06956  N:  8.524  9.000  9.317  Nx: 135.007   dN:-0.188E+01
 TRCHEK2: N2 convergence failed.
 x:  0.05476  0.06750  0.06956  N:  8.524  9.000  9.045  Nx:  75.427   dN:-0.916E+00
 TRCHEK2: N2 convergence failed.
 x:  0.05476  0.06537  0.06956  N:  8.524  9.000  9.141  Nx:  68.817   dN:-0.154E+01
 TRCHEK2: N2 convergence failed.
 x:  0.05476  0.06956  0.06956  N:  8.524  9.000  9.375  Nx:  57.406   dN: 0.375E+00
 TRCHEK2: N2 convergence failed.
 x:  0.05476  0.06321  0.06956  N:  8.524  9.000  9.285  Nx: 122.659   dN:-0.170E+01
 TRCHEK2: N2 convergence failed.
 x:  0.05476  0.06797  0.06956  N:  8.524  9.000  9.028  Nx:  68.521   dN:-0.912E+00
 TRCHEK2: N2 convergence failed.
 x:  0.05476  0.06833  0.06956  N:  8.524  9.000  9.015  Nx:  53.034   dN:-0.137E+01
 TRCHEK2: N2 convergence failed.
 x:  0.05476  0.06734  0.06956  N:  8.524  9.000  9.051  Nx:  57.551   dN:-0.137E+01
 TRCHEK2: N2 convergence failed.
 x:  0.05476  0.06617  0.06956  N:  8.524  9.000  9.101  Nx:  54.849   dN:-0.451E+01
 TRCHEK2: N2 convergence failed.
 x:  0.05476  0.06641  0.06956  N:  8.524  9.000  9.090  Nx:  52.729   dN:-0.959E+01
 TRCHEK2: N2 convergence failed.
 x:  0.05476  0.06956  0.06956  N:  8.524  9.000  9.167  Nx:  43.419   dN: 0.167E+00
 TRCHEK2: N2 convergence failed.
 x:  0.05476  0.06956  0.06956  N:  8.524  9.000  9.375  Nx:  57.437   dN: 0.375E+00
 TRCHEK2: N2 convergence failed.
 x:  0.05476  0.06490  0.06956  N:  8.524  9.000  9.168  Nx: 105.681   dN:-0.123E+01
 MRCHDU: Convergence failed at   9  side 2    Res =  0.2783E+01
 Side 1  free  transition at x/c =  0.7709   33
 Side 2  free  transition at x/c =  0.0768   10

  48   rms: 0.6278E+00   max: -.5830E+01   n at    7  2   RLX: 0.086
       a =  0.000      CL =  0.1498
      Cm = -0.0454     CD =  0.07878   =>   CDf =  0.00212    CDp =  0.07665

 Side 1  free  transition at x/c =  0.7720   33
 Side 2  free  transition at x/c =  0.0490    8

  49   rms: 0.5518E+00   max: 0.6494E+01   T at    8  2   RLX: 0.191
       a =  0.000      CL =  0.2032
      Cm = -0.0579     CD =  0.07198   =>   CDf =  0.00213    CDp =  0.06985

 Side 1  free  transition at x/c =  0.7734   33
 Side 2  free  transition at x/c =  0.0336    7
 idif Ue xi dudx           1   1.3132697      4.62031364E-03   284.23822    
 Uenew xinew           2  7.25114113E-03  2.55107880E-05

  50   rms: 0.5836E+00   max: 0.7436E+01   T at    7  2   RLX: 0.202
       a =  0.000      CL =  0.1957
      Cm = -0.0584     CD =  0.06721   =>   CDf =  0.00212    CDp =  0.06509

 Side 1  free  transition at x/c =  0.7744   32
 Side 2  free  transition at x/c =  0.0230    7

  51   rms: 0.1571E+01   max: -.1737E+02   T at    2  2   RLX: 0.029
       a =  0.000      CL =  0.1338
      Cm = -0.0452     CD =  0.06968   =>   CDf =  0.00214    CDp =  0.06754

 Side 1  free  transition at x/c =  0.7745   32
 Side 2  free  transition at x/c =  0.0224    7

  52   rms: 0.2550E+01   max: -.2923E+02   D at    2  2   RLX: 0.017
       a =  0.000      CL =  0.1191
      Cm = -0.0417     CD =  0.06989   =>   CDf =  0.00218    CDp =  0.06771

 Side 1  free  transition at x/c =  0.7746   33
 Side 2  free  transition at x/c =  0.0205    6
 idif Ue xi dudx           1   1.3042642      4.61298227E-03   282.73773    
 Uenew xinew           2  5.14000701E-03  1.81794167E-05

  53   rms: 0.3627E+01   max: 0.4560E+02   T at    2  1   RLX: 0.025
       a =  0.000      CL =  0.0838
      Cm = -0.0325     CD =  0.07228   =>   CDf =  0.00212    CDp =  0.07016

 Side 1  free  transition at x/c =  0.7747   32
 Side 2  free  transition at x/c =  0.0204    7

  54   rms: 0.4362E+00   max: 0.3087E+01   D at    2  2   RLX: 0.373
       a =  0.000      CL =  0.1982
      Cm = -0.0594     CD =  0.06186   =>   CDf =  0.00213    CDp =  0.05973

 Side 1  free  transition at x/c =  0.7762   32
 Side 2  free  transition at x/c =  0.0101    5

  55   rms: 0.3443E+00   max: 0.1043E+01   T at    6  2   RLX: 0.570
       a =  0.000      CL =  0.3480
      Cm = -0.0941     CD =  0.04578   =>   CDf =  0.00215    CDp =  0.04363

 Side 1  free  transition at x/c =  0.7719   32
 Side 2  free  transition at x/c =  0.0110    5

  56   rms: 0.5560E+00   max: 0.5026E+01   T at    6  2   RLX: 0.298
       a =  0.000      CL =  0.4092
      Cm = -0.1099     CD =  0.04766   =>   CDf =  0.00210    CDp =  0.04556

 Side 1  free  transition at x/c =  0.7669   32
 Side 2  free  transition at x/c =  0.0109    5

  57   rms: 0.3690E+00   max: -.1244E+01   D at   46  2   RLX: 0.402
       a =  0.000      CL =  0.4623
      Cm = -0.1339     CD =  0.03224   =>   CDf =  0.00209    CDp =  0.03015

 Side 1  free  transition at x/c =  0.7605   32
 Side 2  free  transition at x/c =  0.0096    5

  58   rms: 0.5178E+00   max: -.1797E+01   D at   46  2   RLX: 0.278
       a =  0.000      CL =  0.4977
      Cm = -0.1514     CD =  0.02640   =>   CDf =  0.00208    CDp =  0.02432

 Side 1  free  transition at x/c =  0.7544   32
 Side 2  free  transition at x/c =  0.0083    5

  59   rms: 0.8957E+00   max: -.2889E+01   D at   39  2   RLX: 0.173
       a =  0.000      CL =  0.5120
      Cm = -0.1635     CD =  0.02118   =>   CDf =  0.00210    CDp =  0.01909

 Side 1  free  transition at x/c =  0.7499   32
 Side 2  free  transition at x/c =  0.0076    5

  60   rms: 0.1054E+01   max: -.3183E+01   D at   39  2   RLX: 0.157
       a =  0.000      CL =  0.5106
      Cm = -0.1639     CD =  0.01623   =>   CDf =  0.00220    CDp =  0.01403

 Side 1  free  transition at x/c =  0.7481   32
 Side 2  free  transition at x/c =  0.0073    5

  61   rms: 0.1027E+01   max: -.3069E+01   D at   39  2   RLX: 0.163
       a =  0.000      CL =  0.5154
      Cm = -0.1633     CD =  0.01266   =>   CDf =  0.00238    CDp =  0.01028

 Side 1  free  transition at x/c =  0.7494   32
 Side 2  free  transition at x/c =  0.0075    5

  62   rms: 0.9427E+00   max: -.2746E+01   D at   39  2   RLX: 0.182
       a =  0.000      CL =  0.5438
      Cm = -0.1663     CD =  0.01042   =>   CDf =  0.00261    CDp =  0.00781

 Side 1  free  transition at x/c =  0.7542   32
 Side 2  free  transition at x/c =  0.0083    5

  63   rms: 0.7092E+00   max: -.2046E+01   D at   38  2   RLX: 0.244
       a =  0.000      CL =  0.5724
      Cm = -0.1673     CD =  0.00950   =>   CDf =  0.00282    CDp =  0.00669

 Side 1  free  transition at x/c =  0.7586   32
 Side 2  free  transition at x/c =  0.0098    5

  64   rms: 0.5020E+00   max: -.2549E+01   T at    5  2   RLX: 0.196
       a =  0.000      CL =  0.5915
      Cm = -0.1672     CD =  0.00989   =>   CDf =  0.00302    CDp =  0.00687

 MRCHDU: Convergence failed at  23  side 2    Res =  0.2597E+01
 Side 1  free  transition at x/c =  0.7614   32
 Side 2  free  transition at x/c =  0.0115    5

  65   rms: 0.9035E+00   max: -.2877E+01   D at   39  2   RLX: 0.174
       a =  0.000      CL =  0.5792
      Cm = -0.1688     CD =  0.01611   =>   CDf =  0.00245    CDp =  0.01366

 Side 1  free  transition at x/c =  0.7617   32
 Side 2  free  transition at x/c =  0.0115    5

  66   rms: 0.4510E+00   max: -.1693E+01   T at    5  2   RLX: 0.295
       a =  0.000      CL =  0.6065
      Cm = -0.1676     CD =  0.01106   =>   CDf =  0.00303    CDp =  0.00803

 Side 1  free  transition at x/c =  0.7644   32
 Side 2  free  transition at x/c =  0.0104    5

  67   rms: 0.2186E+00   max: -.8249E+00   D at   36  2   RLX: 0.606
       a =  0.000      CL =  0.6522
      Cm = -0.1649     CD =  0.00751   =>   CDf =  0.00386    CDp =  0.00365

 Side 1  free  transition at x/c =  0.7689   32
 Side 2  free  transition at x/c =  0.0108    5

  68   rms: 0.1221E+00   max: -.7451E+00   D at    5  2   RLX: 0.671
       a =  0.000      CL =  0.6641
      Cm = -0.1619     CD =  0.00814   =>   CDf =  0.00397    CDp =  0.00416

 Side 1  free  transition at x/c =  0.7700   33
 Side 2  free  transition at x/c =  0.0112    4

  69   rms: 0.1026E+00   max: -.6404E+00   D at    4  2   RLX: 0.781
       a =  0.000      CL =  0.6676
      Cm = -0.1603     CD =  0.00840   =>   CDf =  0.00401    CDp =  0.00440

 MRCHDU: Convergence failed at   7  side 2    Res =  0.4035E+02
 MRCHDU: Convergence failed at   8  side 2    Res =  0.2824E+02
 MRCHDU: Convergence failed at   9  side 2    Res =  0.5299E+02
 MRCHDU: Convergence failed at  10  side 2    Res =  0.6277E+02
 MRCHDU: Convergence failed at  11  side 2    Res =  0.9173E+02
 MRCHDU: Convergence failed at  12  side 2    Res =  0.1160E+03
 MRCHDU: Convergence failed at  13  side 2    Res =  0.9026E+02
 MRCHDU: Convergence failed at  14  side 2    Res =  0.1066E+03
 MRCHDU: Convergence failed at  15  side 2    Res =  0.1097E+03
 MRCHDU: Convergence failed at  16  side 2    Res =  0.1104E+03
 MRCHDU: Convergence failed at  17  side 2    Res =  0.1206E+03
 MRCHDU: Convergence failed at  18  side 2    Res =  0.1168E+03
 MRCHDU: Convergence failed at  19  side 2    Res =  0.1142E+03
 MRCHDU: Convergence failed at  20  side 2    Res =  0.1102E+03
 MRCHDU: Convergence failed at  21  side 2    Res =  0.1146E+03
 MRCHDU: Convergence failed at  22  side 2    Res =  0.1085E+03
 MRCHDU: Convergence failed at  23  side 2    Res =  0.1086E+03
 MRCHDU: Convergence failed at  24  side 2    Res =  0.1069E+03
 MRCHDU: Convergence failed at  25  side 2    Res =  0.1012E+03
 MRCHDU: Convergence failed at  26  side 2    Res =  0.9781E+02
 MRCHDU: Convergence failed at  27  side 2    Res =  0.9618E+02
 MRCHDU: Convergence failed at  28  side 2    Res =  0.9581E+02
 MRCHDU: Convergence failed at  29  side 2    Res =  0.9575E+02
 MRCHDU: Convergence failed at  30  side 2    Res =  0.9511E+02
 MRCHDU: Convergence failed at  31  side 2    Res =  0.9856E+02
 MRCHDU: Convergence failed at  32  side 2    Res =  0.9765E+02
 MRCHDU: Convergence failed at  33  side 2    Res =  0.9626E+02
 MRCHDU: Convergence failed at  34  side 2    Res =  0.9508E+02
 MRCHDU: Convergence failed at  35  side 2    Res =  0.9307E+02
 MRCHDU: Convergence failed at  36  side 2    Res =  0.1108E+03
 MRCHDU: Convergence failed at  37  side 2    Res =  0.1095E+03
 MRCHDU: Convergence failed at  38  side 2    Res =  0.1105E+03
 MRCHDU: Convergence failed at  39  side 2    Res =  0.5514E+03
 MRCHDU: Convergence failed at  40  side 2    Res =  0.1146E+04
 MRCHDU: Convergence failed at  41  side 2    Res =  0.1625E+03
 MRCHDU: Convergence failed at  42  side 2    Res =  0.3097E+03
 MRCHDU: Convergence failed at  44  side 2    Res =  0.4122E+01
 Side 1  free  transition at x/c =  0.7702   33
 Side 2  free  transition at x/c =  0.0373    7

  70   rms: 0.2126E+01   max: 0.1798E+02   T at    7  2   RLX: 0.043
       a =  0.000      CL = -0.2548
      Cm =  0.0582     CD =  0.00432   =>   CDf =  0.00194    CDp =  0.00238

 Side 1  free  transition at x/c =  0.7704   33
 Side 2  free  transition at x/c =  0.0396    7

  71   rms: 0.3329E+01   max: -.4409E+02   T at    8  2   RLX: 0.011
       a =  0.000      CL =  0.0887
      Cm = -0.0313     CD =  0.08269   =>   CDf =  0.00214    CDp =  0.08055

 Side 1  free  transition at x/c =  0.7706   33
 Side 2  free  transition at x/c =  0.0381    7

  72   rms: 0.1393E+02   max: -.2029E+03   T at    7  2   RLX: 0.002
       a =  0.000      CL =  0.0877
      Cm = -0.0301     CD =  0.08401   =>   CDf =  0.00214    CDp =  0.08187

 Side 1  free  transition at x/c =  0.7706   33
 Side 2  free  transition at x/c =  0.0623    9

  73   rms: 0.2895E+01   max: -.4829E+02   T at    9  2   RLX: 0.010
       a =  0.000      CL =  0.0844
      Cm = -0.0301     CD =  0.08231   =>   CDf =  0.00213    CDp =  0.08018

 TRCHEK2: N2 convergence failed.
 x:  0.05478  0.06506  0.06958  N:  8.393  9.000  9.204  Nx: 129.184   dN:-0.182E+01
 TRCHEK2: N2 convergence failed.
 x:  0.05478  0.06958  0.06958  N:  8.393  9.000  9.519  Nx:  76.048   dN: 0.519E+00
 TRCHEK2: N2 convergence failed.
 x:  0.05478  0.06507  0.06958  N:  8.393  9.000  9.203  Nx: 128.676   dN:-0.181E+01
 TRCHEK2: N2 convergence failed.
 x:  0.05478  0.06958  0.06958  N:  8.393  9.000  9.516  Nx:  75.811   dN: 0.516E+00
 TRCHEK2: N2 convergence failed.
 x:  0.05478  0.06507  0.06958  N:  8.393  9.000  9.203  Nx: 128.682   dN:-0.181E+01
 TRCHEK2: N2 convergence failed.
 x:  0.05478  0.06958  0.06958  N:  8.393  9.000  9.516  Nx:  75.812   dN: 0.516E+00
 TRCHEK2: N2 convergence failed.
 x:  0.05478  0.06507  0.06958  N:  8.393  9.000  9.203  Nx: 128.683   dN:-0.181E+01
 TRCHEK2: N2 convergence failed.
 x:  0.05478  0.06958  0.06958  N:  8.393  9.000  9.516  Nx:  75.812   dN: 0.516E+00
 TRCHEK2: N2 convergence failed.
 x:  0.05478  0.06507  0.06958  N:  8.393  9.000  9.203  Nx: 128.683   dN:-0.181E+01
 TRCHEK2: N2 convergence failed.
 x:  0.05478  0.06958  0.06958  N:  8.393  9.000  9.516  Nx:  75.812   dN: 0.516E+00
 TRCHEK2: N2 convergence failed.
 x:  0.05478  0.06507  0.06958  N:  8.393  9.000  9.203  Nx: 128.683   dN:-0.181E+01
 TRCHEK2: N2 convergence failed.
 x:  0.05478  0.06958  0.06958  N:  8.393  9.000  9.516  Nx:  75.812   dN: 0.516E+00
 TRCHEK2: N2 convergence failed.
 x:  0.05478  0.06507  0.06958  N:  8.393  9.000  9.203  Nx: 128.683   dN:-0.181E+01
 TRCHEK2: N2 convergence failed.
 x:  0.05478  0.06958  0.06958  N:  8.393  9.000  9.516  Nx:  75.812   dN: 0.516E+00
 MRCHDU: Convergence failed at   9  side 2    Res =  0.2941E+01
 Side 1  free  transition at x/c =  0.7708   33
 Side 2  free  transition at x/c =  0.0927   11

  74   rms: 0.8077E+00   max: -.7630E+01   n at    7  2   RLX: 0.066
       a =  0.000      CL =  0.1394
      Cm = -0.0453     CD =  0.07813   =>   CDf =  0.00212    CDp =  0.07602

 MRCHDU: Convergence failed at   9  side 2    Res =  0.1965E+00
 MRCHDU: Convergence failed at  10  side 2    Res =  0.1930E+00
 Side 1  free  transition at x/c =  0.7717   33
 Side 2  free  transition at x/c =  0.0559    8

  75   rms: 0.5233E+01   max: 0.1906E+02   T at   11  2   RLX: 0.043
       a =  0.000      CL =  0.2032
      Cm = -0.0626     CD =  0.50081   =>   CDf =  0.00212    CDp =  0.49869

 Side 1  free  transition at x/c =  0.7680   33
 Side 2  free  transition at x/c =  0.0426    8
 idif Ue xi dudx           1   1.4402051      5.08147478E-03   283.42267    
 Uenew xinew           2  0.13793385      4.86671925E-04

  76   rms: 0.4983E+01   max: 0.4795E+02   T at    8  2   RLX: 0.031
       a =  0.000      CL =  0.0562
      Cm = -0.0344     CD =  0.07061   =>   CDf =  0.00211    CDp =  0.06850

 Side 1  free  transition at x/c =  0.7674   32
 Side 2  free  transition at x/c =  0.0325    8

  77   rms: 0.5068E+01   max: 0.6869E+02   T at    8  2   RLX: 0.022
       a =  0.000      CL =  0.0030
      Cm = -0.0329     CD =  0.05491   =>   CDf =  0.00213    CDp =  0.05278

 MRCHDU: Convergence failed at   7  side 2    Res =  0.4495E+00
 Side 1  free  transition at x/c =  0.7678   32
 Side 2  free  transition at x/c =  0.0196    6

  78   rms: 0.3031E+01   max: 0.1019E+02   T at    8  2   RLX: 0.147
       a =  0.000      CL =  0.0251
      Cm = -0.0311     CD =  0.50081   =>   CDf =  0.00217    CDp =  0.49864

 MRCHDU: Convergence failed at   8  side 2    Res =  0.9955E+02
 MRCHDU: Convergence failed at   9  side 2    Res =  0.7172E+03
 MRCHDU: Convergence failed at  10  side 2    Res =  0.6286E+02
 MRCHDU: Convergence failed at  11  side 2    Res =  0.8436E+02
 MRCHDU: Convergence failed at  12  side 2    Res =  0.3517E+03
 MRCHDU: Convergence failed at  13  side 2    Res =  0.1161E+03
 MRCHDU: Convergence failed at  14  side 2    Res =  0.6029E+02
 MRCHDU: Convergence failed at  15  side 2    Res =  0.6091E+02
 MRCHDU: Convergence failed at  16  side 2    Res =  0.7629E+02
 MRCHDU: Convergence failed at  17  side 2    Res =  0.1148E+03
 MRCHDU: Convergence failed at  18  side 2    Res =  0.2194E+03
 MRCHDU: Convergence failed at  19  side 2    Res =  0.7333E+03
 MRCHDU: Convergence failed at  20  side 2    Res =  0.3538E+04
 MRCHDU: Convergence failed at  21  side 2    Res =  0.2837E+03
 MRCHDU: Convergence failed at  22  side 2    Res =  0.1649E+03
 MRCHDU: Convergence failed at  23  side 2    Res =  0.1277E+03
 MRCHDU: Convergence failed at  24  side 2    Res =  0.1005E+03
 MRCHDU: Convergence failed at  25  side 2    Res =  0.8165E+02
 MRCHDU: Convergence failed at  26  side 2    Res =  0.7345E+02
 MRCHDU: Convergence failed at  27  side 2    Res =  0.6811E+02
 MRCHDU: Convergence failed at  28  side 2    Res =  0.6468E+02
 MRCHDU: Convergence failed at  29  side 2    Res =  0.6187E+02
 MRCHDU: Convergence failed at  30  side 2    Res =  0.5914E+02
 MRCHDU: Convergence failed at  31  side 2    Res =  0.5919E+02
 MRCHDU: Convergence failed at  32  side 2    Res =  0.6095E+02
 MRCHDU: Convergence failed at  33  side 2    Res =  0.6291E+02
 MRCHDU: Convergence failed at  34  side 2    Res =  0.6454E+02
 MRCHDU: Convergence failed at  35  side 2    Res =  0.6551E+02
 MRCHDU: Convergence failed at  36  side 2    Res =  0.6624E+02
 MRCHDU: Convergence failed at  37  side 2    Res =  0.6703E+02
 MRCHDU: Convergence failed at  38  side 2    Res =  0.6758E+02
 MRCHDU: Convergence failed at  39  side 2    Res =  0.6795E+02
 MRCHDU: Convergence failed at  40  side 2    Res =  0.6805E+02
 MRCHDU: Convergence failed at  41  side 2    Res =  0.6802E+02
 MRCHDU: Convergence failed at  42  side 2    Res =  0.6801E+02
 MRCHDU: Convergence failed at  43  side 2    Res =  0.6683E+02
 Side 1  free  transition at x/c =  0.7604   32
 Side 2  free  transition at x/c =  0.0111    5

  79   rms: 0.4944E+01   max: 0.5705E+02   T at    6  2   RLX: 0.026
       a =  0.000      CL = -0.8363
      Cm =  0.1796     CD =  0.02012   =>   CDf =  0.00217    CDp =  0.01795

 Side 1  free  transition at x/c =  0.7630   32
 Side 2  free  transition at x/c =  0.0111    5

  80   rms: 0.7573E+01   max: -.6842E+02   T at    6  2   RLX: 0.007
       a =  0.000      CL = -0.7441
      Cm =  0.1403     CD =  0.06250   =>   CDf =  0.00217    CDp =  0.06033

 Side 1  free  transition at x/c =  0.7656   32
 Side 2  free  transition at x/c =  0.0104    5

  81   rms: 0.4187E+01   max: -.4736E+02   T at    6  2   RLX: 0.011
       a =  0.000      CL = -0.7982
      Cm =  0.1501     CD =  0.06542   =>   CDf =  0.00216    CDp =  0.06326

 Side 1  free  transition at x/c =  0.7686   32
 Side 2  free  transition at x/c =  0.0094    5

  82   rms: 0.2051E+01   max: 0.2208E+02   T at    5  2   RLX: 0.056
       a =  0.000      CL = -0.8738
      Cm =  0.1595     CD =  0.07665   =>   CDf =  0.00216    CDp =  0.07450

 Side 1  free  transition at x/c =  0.7762   32
 Side 2  free  transition at x/c =  0.0069    5

  83   rms: 0.7616E+00   max: 0.3873E+01   T at    5  2   RLX: 0.387
       a =  0.000      CL = -0.6043
      Cm =  0.0842     CD =  0.10413   =>   CDf =  0.00220    CDp =  0.10193

 MRCHDU: Convergence failed at   5  side 2    Res =  0.9593E+03
 MRCHDU: Convergence failed at   6  side 2    Res =  0.1201E+01
 MRCHDU: Convergence failed at   7  side 2    Res =  0.1887E+01
 MRCHDU: Convergence failed at   8  side 2    Res =  0.2084E+01
 MRCHDU: Convergence failed at   9  side 2    Res =  0.2136E+01
 MRCHDU: Convergence failed at  10  side 2    Res =  0.2099E+01
 MRCHDU: Convergence failed at  11  side 2    Res =  0.2022E+01
 MRCHDU: Convergence failed at  12  side 2    Res =  0.1896E+01
 MRCHDU: Convergence failed at  13  side 2    Res =  0.1758E+01
 MRCHDU: Convergence failed at  14  side 2    Res =  0.1586E+01
 MRCHDU: Convergence failed at  15  side 2    Res =  0.1402E+01
 MRCHDU: Convergence failed at  16  side 2    Res =  0.1199E+01
 MRCHDU: Convergence failed at  17  side 2    Res =  0.9836E+00
 MRCHDU: Convergence failed at  18  side 2    Res =  0.7631E+00
 MRCHDU: Convergence failed at  19  side 2    Res =  0.5347E+00
 MRCHDU: Convergence failed at  20  side 2    Res =  0.2921E+00
 MRCHDU: Convergence failed at  21  side 2    Res =  0.5012E-01
 MRCHDU: Convergence failed at  22  side 2    Res =  0.2257E-01
 MRCHDU: Convergence failed at  23  side 2    Res =  0.1055E-01
 MRCHDU: Convergence failed at  24  side 2    Res =  0.3243E-02
 MRCHDU: Convergence failed at  25  side 2    Res =  0.5404E-03
 MRCHDU: Convergence failed at  26  side 2    Res =  0.2210E-03
 MRCHDU: Convergence failed at  27  side 2    Res =  0.7261E-04
 MRCHDU: Convergence failed at  28  side 2    Res =  0.1662E-04
 MRCHDU: Convergence failed at  46  side 2    Res =  0.1993E-02
 MRCHDU: Convergence failed at  48  side 2    Res =  0.2231E+01
 MRCHDU: Convergence failed at  49  side 2    Res =  0.6397E+01
 MRCHDU: Convergence failed at  50  side 2    Res =  0.1853E+02
 MRCHDU: Convergence failed at  51  side 2    Res =  0.4145E+01
 MRCHDU: Convergence failed at  52  side 2    Res =  0.4265E+01
 MRCHDU: Convergence failed at  53  side 2    Res =  0.4008E+01
 MRCHDU: Convergence failed at  54  side 2    Res =  0.8793E+01
 Side 1  free  transition at x/c =  0.8788   36
 Side 2  free  transition at x/c =  0.0055    4

  84   rms: 0.3651E+03   max: -.1053E+04   D at   20  2   RLX: 0.000
       a =  0.000      CL = -1.3898
      Cm =  0.1283     CD = 12.72824   =>   CDf =  0.00168    CDp = 12.72655

 MRCHDU: Convergence failed at   5  side 2    Res =  0.1378E+01
 MRCHDU: Convergence failed at   6  side 2    Res =  0.2139E+01
 MRCHDU: Convergence failed at   7  side 2    Res =  0.2676E+01
 MRCHDU: Convergence failed at   8  side 2    Res =  0.2979E+01
 MRCHDU: Convergence failed at   9  side 2    Res =  0.3187E+01
 MRCHDU: Convergence failed at  10  side 2    Res =  0.3300E+01
 MRCHDU: Convergence failed at  11  side 2    Res =  0.3359E+01
 MRCHDU: Convergence failed at  12  side 2    Res =  0.3373E+01
 MRCHDU: Convergence failed at  13  side 2    Res =  0.3364E+01
 MRCHDU: Convergence failed at  14  side 2    Res =  0.3329E+01
 MRCHDU: Convergence failed at  15  side 2    Res =  0.3278E+01
 MRCHDU: Convergence failed at  16  side 2    Res =  0.3216E+01
 MRCHDU: Convergence failed at  17  side 2    Res =  0.3148E+01
 MRCHDU: Convergence failed at  18  side 2    Res =  0.3081E+01
 MRCHDU: Convergence failed at  19  side 2    Res =  0.3022E+01
 MRCHDU: Convergence failed at  20  side 2    Res =  0.2903E+01
 Side 1  free  transition at x/c =  0.8598   35
 Side 2  free  transition at x/c =  0.0055    4

  85   rms: 0.1020E+02   max: 0.6479E+02   T at   54  2   RLX: 0.023
       a =  0.000      CL = -1.7307
      Cm =  0.3182     CD =  1.66676   =>   CDf =  0.00163    CDp =  1.66512

 MRCHDU: Convergence failed at   5  side 2    Res =  0.2610E+01
 MRCHDU: Convergence failed at   6  side 2    Res =  0.3630E+01
 MRCHDU: Convergence failed at   7  side 2    Res =  0.4259E+01
 MRCHDU: Convergence failed at   8  side 2    Res =  0.4648E+01
 MRCHDU: Convergence failed at   9  side 2    Res =  0.4887E+01
 MRCHDU: Convergence failed at  10  side 2    Res =  0.5003E+01
 MRCHDU: Convergence failed at  11  side 2    Res =  0.5046E+01
 MRCHDU: Convergence failed at  12  side 2    Res =  0.5013E+01
 MRCHDU: Convergence failed at  13  side 2    Res =  0.4948E+01
 MRCHDU: Convergence failed at  14  side 2    Res =  0.4832E+01
 MRCHDU: Convergence failed at  15  side 2    Res =  0.4693E+01
 MRCHDU: Convergence failed at  16  side 2    Res =  0.4521E+01
 MRCHDU: Convergence failed at  17  side 2    Res =  0.4328E+01
 MRCHDU: Convergence failed at  18  side 2    Res =  0.4121E+01
 MRCHDU: Convergence failed at  19  side 2    Res =  0.3894E+01
 MRCHDU: Convergence failed at  20  side 2    Res =  0.3643E+01
 MRCHDU: Convergence failed at  50  side 2    Res =  0.1024E+02
 MRCHDU: Convergence failed at  51  side 2    Res =  0.4709E+01
 MRCHDU: Convergence failed at  52  side 2    Res =  0.8485E+01
 MRCHDU: Convergence failed at  53  side 2    Res =  0.2256E+02
 MRCHDU: Convergence failed at  54  side 2    Res =  0.1134E+02
 MRCHDU: Convergence failed at  55  side 2    Res =  0.1746E+02
 Side 1  free  transition at x/c =  0.8637   35
 Side 2  free  transition at x/c =  0.0055    4

  86   rms: 0.8990E+02   max: -.8961E+02   U at   55  2   RLX: 0.000
       a =  0.000      CL = -1.3747
      Cm =  0.1882     CD = 12.56872   =>   CDf =  0.00165    CDp = 12.56707

 MRCHDU: Convergence failed at   5  side 2    Res =  0.2582E+01
 MRCHDU: Convergence failed at   6  side 2    Res =  0.3532E+01
 MRCHDU: Convergence failed at   7  side 2    Res =  0.4144E+01
 MRCHDU: Convergence failed at   8  side 2    Res =  0.4510E+01
 MRCHDU: Convergence failed at   9  side 2    Res =  0.4747E+01
 MRCHDU: Convergence failed at  10  side 2    Res =  0.4870E+01
 MRCHDU: Convergence failed at  11  side 2    Res =  0.4928E+01
 MRCHDU: Convergence failed at  12  side 2    Res =  0.4921E+01
 MRCHDU: Convergence failed at  13  side 2    Res =  0.4888E+01
 MRCHDU: Convergence failed at  14  side 2    Res =  0.4812E+01
 MRCHDU: Convergence failed at  15  side 2    Res =  0.4715E+01
 MRCHDU: Convergence failed at  16  side 2    Res =  0.4592E+01
 MRCHDU: Convergence failed at  17  side 2    Res =  0.4452E+01
 MRCHDU: Convergence failed at  18  side 2    Res =  0.4301E+01
 MRCHDU: Convergence failed at  19  side 2    Res =  0.4139E+01
 MRCHDU: Convergence failed at  20  side 2    Res =  0.3960E+01
 Side 1  free  transition at x/c =  0.8631   35
 Side 2  free  transition at x/c =  0.0055    4

  87   rms: 0.8694E+02   max: -.8920E+02   U at   55  2   RLX: 0.000
       a =  0.000      CL = -1.3838
      Cm =  0.1889     CD = 12.04438   =>   CDf =  0.00165    CDp = 12.04274

 MRCHDU: Convergence failed at   5  side 2    Res =  0.2500E+01
 MRCHDU: Convergence failed at   6  side 2    Res =  0.3442E+01
 MRCHDU: Convergence failed at   7  side 2    Res =  0.4049E+01
 MRCHDU: Convergence failed at   8  side 2    Res =  0.4412E+01
 MRCHDU: Convergence failed at   9  side 2    Res =  0.4648E+01
 MRCHDU: Convergence failed at  10  side 2    Res =  0.4770E+01
 MRCHDU: Convergence failed at  11  side 2    Res =  0.4829E+01
 MRCHDU: Convergence failed at  12  side 2    Res =  0.4823E+01
 MRCHDU: Convergence failed at  13  side 2    Res =  0.4792E+01
 MRCHDU: Convergence failed at  14  side 2    Res =  0.4718E+01
 MRCHDU: Convergence failed at  15  side 2    Res =  0.4624E+01
 MRCHDU: Convergence failed at  16  side 2    Res =  0.4504E+01
 MRCHDU: Convergence failed at  17  side 2    Res =  0.4368E+01
 MRCHDU: Convergence failed at  18  side 2    Res =  0.4221E+01
 MRCHDU: Convergence failed at  19  side 2    Res =  0.4064E+01
 MRCHDU: Convergence failed at  20  side 2    Res =  0.3890E+01
 Side 1  free  transition at x/c =  0.8607   35
 Side 2  free  transition at x/c =  0.0055    4

  88   rms: 0.7815E+02   max: -.8227E+02   U at   55  2   RLX: 0.000
       a =  0.000      CL = -1.4078
      Cm =  0.1951     CD = 10.82151   =>   CDf =  0.00163    CDp = 10.81988

 MRCHDU: Convergence failed at   5  side 2    Res =  0.2426E+01
 MRCHDU: Convergence failed at   6  side 2    Res =  0.3362E+01
 MRCHDU: Convergence failed at   7  side 2    Res =  0.3966E+01
 MRCHDU: Convergence failed at   8  side 2    Res =  0.4328E+01
 MRCHDU: Convergence failed at   9  side 2    Res =  0.4563E+01
 MRCHDU: Convergence failed at  10  side 2    Res =  0.4684E+01
 MRCHDU: Convergence failed at  11  side 2    Res =  0.4743E+01
 MRCHDU: Convergence failed at  12  side 2    Res =  0.4738E+01
 MRCHDU: Convergence failed at  13  side 2    Res =  0.4707E+01
 MRCHDU: Convergence failed at  14  side 2    Res =  0.4633E+01
 MRCHDU: Convergence failed at  15  side 2    Res =  0.4540E+01
 MRCHDU: Convergence failed at  16  side 2    Res =  0.4422E+01
 MRCHDU: Convergence failed at  17  side 2    Res =  0.4286E+01
 MRCHDU: Convergence failed at  18  side 2    Res =  0.4141E+01
 MRCHDU: Convergence failed at  19  side 2    Res =  0.3984E+01
 MRCHDU: Convergence failed at  20  side 2    Res =  0.3812E+01
 Side 1  free  transition at x/c =  0.8577   35
 Side 2  free  transition at x/c =  0.0055    4

  89   rms: 0.7461E+02   max: -.7606E+02   U at   55  2   RLX: 0.000
       a =  0.000      CL = -1.4307
      Cm =  0.2010     CD =  9.84270   =>   CDf =  0.00162    CDp =  9.84107

 MRCHDU: Convergence failed at   5  side 2    Res =  0.2357E+01
 MRCHDU: Convergence failed at   6  side 2    Res =  0.3288E+01
 MRCHDU: Convergence failed at   7  side 2    Res =  0.3889E+01
 MRCHDU: Convergence failed at   8  side 2    Res =  0.4249E+01
 MRCHDU: Convergence failed at   9  side 2    Res =  0.4483E+01
 MRCHDU: Convergence failed at  10  side 2    Res =  0.4604E+01
 MRCHDU: Convergence failed at  11  side 2    Res =  0.4663E+01
 MRCHDU: Convergence failed at  12  side 2    Res =  0.4658E+01
 MRCHDU: Convergence failed at  13  side 2    Res =  0.4627E+01
 MRCHDU: Convergence failed at  14  side 2    Res =  0.4554E+01
 MRCHDU: Convergence failed at  15  side 2    Res =  0.4462E+01
 MRCHDU: Convergence failed at  16  side 2    Res =  0.4344E+01
 MRCHDU: Convergence failed at  17  side 2    Res =  0.4210E+01
 MRCHDU: Convergence failed at  18  side 2    Res =  0.4065E+01
 MRCHDU: Convergence failed at  19  side 2    Res =  0.3910E+01
 MRCHDU: Convergence failed at  20  side 2    Res =  0.3739E+01
 Side 1  free  transition at x/c =  0.8539   35
 Side 2  free  transition at x/c =  0.0055    4

  90   rms: 0.7809E+02   max: 0.3260E+03   C at   35  1   RLX: 0.000
       a =  0.000      CL = -1.4530
      Cm =  0.2057     CD =  8.85491   =>   CDf =  0.00162    CDp =  8.85329

 MRCHDU: Convergence failed at   5  side 2    Res =  0.2262E+01
 MRCHDU: Convergence failed at   6  side 2    Res =  0.3184E+01
 MRCHDU: Convergence failed at   7  side 2    Res =  0.3781E+01
 MRCHDU: Convergence failed at   8  side 2    Res =  0.4138E+01
 MRCHDU: Convergence failed at   9  side 2    Res =  0.4371E+01
 MRCHDU: Convergence failed at  10  side 2    Res =  0.4492E+01
 MRCHDU: Convergence failed at  11  side 2    Res =  0.4551E+01
 MRCHDU: Convergence failed at  12  side 2    Res =  0.4547E+01
 MRCHDU: Convergence failed at  13  side 2    Res =  0.4518E+01
 MRCHDU: Convergence failed at  14  side 2    Res =  0.4447E+01
 MRCHDU: Convergence failed at  15  side 2    Res =  0.4357E+01
 MRCHDU: Convergence failed at  16  side 2    Res =  0.4242E+01
 MRCHDU: Convergence failed at  17  side 2    Res =  0.4111E+01
 MRCHDU: Convergence failed at  18  side 2    Res =  0.3970E+01
 MRCHDU: Convergence failed at  19  side 2    Res =  0.3818E+01
 MRCHDU: Convergence failed at  20  side 2    Res =  0.3651E+01
 Side 1  free  transition at x/c =  0.8468   35
 Side 2  free  transition at x/c =  0.0055    4

  91   rms: 0.8522E+02   max: 0.4428E+03   C at   35  1   RLX: 0.000
       a =  0.000      CL = -1.4849
      Cm =  0.2150     CD =  7.91831   =>   CDf =  0.00162    CDp =  7.91668

 MRCHDU: Convergence failed at   5  side 2    Res =  0.2200E+01
 MRCHDU: Convergence failed at   6  side 2    Res =  0.3120E+01
 MRCHDU: Convergence failed at   7  side 2    Res =  0.3714E+01
 MRCHDU: Convergence failed at   8  side 2    Res =  0.4071E+01
 MRCHDU: Convergence failed at   9  side 2    Res =  0.4303E+01
 MRCHDU: Convergence failed at  10  side 2    Res =  0.4424E+01
 MRCHDU: Convergence failed at  11  side 2    Res =  0.4482E+01
 MRCHDU: Convergence failed at  12  side 2    Res =  0.4478E+01
 MRCHDU: Convergence failed at  13  side 2    Res =  0.4449E+01
 MRCHDU: Convergence failed at  14  side 2    Res =  0.4378E+01
 MRCHDU: Convergence failed at  15  side 2    Res =  0.4287E+01
 MRCHDU: Convergence failed at  16  side 2    Res =  0.4172E+01
 MRCHDU: Convergence failed at  17  side 2    Res =  0.4040E+01
 MRCHDU: Convergence failed at  18  side 2    Res =  0.3898E+01
 MRCHDU: Convergence failed at  19  side 2    Res =  0.3746E+01
 MRCHDU: Convergence failed at  20  side 2    Res =  0.3578E+01
 Side 1  free  transition at x/c =  0.8411   35
 Side 2  free  transition at x/c =  0.0055    4

  92   rms: 0.1096E+03   max: -.6558E+03   D at   35  1   RLX: 0.001
       a =  0.000      CL = -1.5058
      Cm =  0.2095     CD =  6.31985   =>   CDf =  0.00164    CDp =  6.31822

 MRCHDU: Convergence failed at   5  side 2    Res =  0.1880E+01
 MRCHDU: Convergence failed at   6  side 2    Res =  0.2760E+01
 MRCHDU: Convergence failed at   7  side 2    Res =  0.3339E+01
 MRCHDU: Convergence failed at   8  side 2    Res =  0.3684E+01
 MRCHDU: Convergence failed at   9  side 2    Res =  0.3913E+01
 MRCHDU: Convergence failed at  10  side 2    Res =  0.4033E+01
 MRCHDU: Convergence failed at  11  side 2    Res =  0.4096E+01
 MRCHDU: Convergence failed at  12  side 2    Res =  0.4099E+01
 MRCHDU: Convergence failed at  13  side 2    Res =  0.4080E+01
 MRCHDU: Convergence failed at  14  side 2    Res =  0.4021E+01
 MRCHDU: Convergence failed at  15  side 2    Res =  0.3946E+01
 MRCHDU: Convergence failed at  16  side 2    Res =  0.3848E+01
 MRCHDU: Convergence failed at  17  side 2    Res =  0.3738E+01
 MRCHDU: Convergence failed at  18  side 2    Res =  0.3619E+01
 MRCHDU: Convergence failed at  19  side 2    Res =  0.3495E+01
 MRCHDU: Convergence failed at  20  side 2    Res =  0.3362E+01
 Side 1  free  transition at x/c =  0.8109   34
 Side 2  free  transition at x/c =  0.0055    4

  93   rms: 0.3135E+02   max: -.3966E+02   U at   55  2   RLX: 0.003
       a =  0.000      CL = -1.6189
      Cm =  0.2526     CD =  4.04096   =>   CDf =  0.00166    CDp =  4.03930

 MRCHDU: Convergence failed at   5  side 2    Res =  0.1893E+01
 MRCHDU: Convergence failed at   6  side 2    Res =  0.2795E+01
 MRCHDU: Convergence failed at   7  side 2    Res =  0.3383E+01
 MRCHDU: Convergence failed at   8  side 2    Res =  0.3735E+01
 MRCHDU: Convergence failed at   9  side 2    Res =  0.3967E+01
 MRCHDU: Convergence failed at  10  side 2    Res =  0.4087E+01
 MRCHDU: Convergence failed at  11  side 2    Res =  0.4148E+01
 MRCHDU: Convergence failed at  12  side 2    Res =  0.4146E+01
 MRCHDU: Convergence failed at  13  side 2    Res =  0.4121E+01
 MRCHDU: Convergence failed at  14  side 2    Res =  0.4053E+01
 MRCHDU: Convergence failed at  15  side 2    Res =  0.3967E+01
 MRCHDU: Convergence failed at  16  side 2    Res =  0.3855E+01
 MRCHDU: Convergence failed at  17  side 2    Res =  0.3729E+01
 MRCHDU: Convergence failed at  18  side 2    Res =  0.3592E+01
 MRCHDU: Convergence failed at  19  side 2    Res =  0.3445E+01
 MRCHDU: Convergence failed at  20  side 2    Res =  0.3283E+01
 MRCHDU: Convergence failed at  51  side 2    Res =  0.1384E+01
 MRCHDU: Convergence failed at  52  side 2    Res =  0.8238E+01
 MRCHDU: Convergence failed at  53  side 2    Res =  0.4612E+01
 MRCHDU: Convergence failed at  54  side 2    Res =  0.6919E+01
 MRCHDU: Convergence failed at  55  side 2    Res =  0.6517E+01
 Side 1  free  transition at x/c =  0.7707   32
 Side 2  free  transition at x/c =  0.0055    4

  94   rms: 0.6711E+02   max: 0.9533E+03   C at   32  1   RLX: 0.002
       a =  0.000      CL = -1.6351
      Cm =  0.2509     CD =  3.79895   =>   CDf =  0.00170    CDp =  3.79725

 MRCHDU: Convergence failed at   5  side 2    Res =  0.1721E+01
 MRCHDU: Convergence failed at   6  side 2    Res =  0.2602E+01
 MRCHDU: Convergence failed at   7  side 2    Res =  0.3181E+01
 MRCHDU: Convergence failed at   8  side 2    Res =  0.3527E+01
 MRCHDU: Convergence failed at   9  side 2    Res =  0.3757E+01
 MRCHDU: Convergence failed at  10  side 2    Res =  0.3877E+01
 MRCHDU: Convergence failed at  11  side 2    Res =  0.3941E+01
 MRCHDU: Convergence failed at  12  side 2    Res =  0.3943E+01
 MRCHDU: Convergence failed at  13  side 2    Res =  0.3924E+01
 MRCHDU: Convergence failed at  14  side 2    Res =  0.3864E+01
 MRCHDU: Convergence failed at  15  side 2    Res =  0.3787E+01
 MRCHDU: Convergence failed at  16  side 2    Res =  0.3686E+01
 MRCHDU: Convergence failed at  17  side 2    Res =  0.3573E+01
 MRCHDU: Convergence failed at  18  side 2    Res =  0.3450E+01
 MRCHDU: Convergence failed at  19  side 2    Res =  0.3320E+01
 MRCHDU: Convergence failed at  20  side 2    Res =  0.3179E+01
 Side 1  free  transition at x/c =  0.7522   32
 Side 2  free  transition at x/c =  0.0055    4
 idif Ue xi dudx           1  0.96750736      3.84467840E-03   251.64845    
 Uenew xinew           2  2.09991843E-03  8.34465027E-06

  95   rms: 0.4935E+02   max: -.5149E+02   U at   55  2   RLX: 0.002
       a =  0.000      CL = -1.7038
      Cm =  0.2660     CD =  2.90136   =>   CDf =  0.00155    CDp =  2.89982

 MRCHDU: Convergence failed at   6  side 2    Res =  0.1530E+01
 MRCHDU: Convergence failed at   7  side 2    Res =  0.2398E+01
 MRCHDU: Convergence failed at   8  side 2    Res =  0.2970E+01
 MRCHDU: Convergence failed at   9  side 2    Res =  0.3312E+01
 MRCHDU: Convergence failed at  10  side 2    Res =  0.3541E+01
 MRCHDU: Convergence failed at  11  side 2    Res =  0.3661E+01
 MRCHDU: Convergence failed at  12  side 2    Res =  0.3727E+01
 MRCHDU: Convergence failed at  13  side 2    Res =  0.3732E+01
 MRCHDU: Convergence failed at  14  side 2    Res =  0.3716E+01
 MRCHDU: Convergence failed at  15  side 2    Res =  0.3660E+01
 MRCHDU: Convergence failed at  16  side 2    Res =  0.3588E+01
 MRCHDU: Convergence failed at  17  side 2    Res =  0.3493E+01
 MRCHDU: Convergence failed at  18  side 2    Res =  0.3386E+01
 MRCHDU: Convergence failed at  19  side 2    Res =  0.3270E+01
 MRCHDU: Convergence failed at  20  side 2    Res =  0.3149E+01
 MRCHDU: Convergence failed at  21  side 2    Res =  0.3018E+01
 MRCHDU: Convergence failed at  55  side 2    Res =  0.1261E+01
 MRCHDU: Convergence failed at  56  side 2    Res =  0.1677E+01
 Side 1  free  transition at x/c =  0.7364   30
 Side 2  free  transition at x/c =  0.0055    5

  96   rms: 0.5247E+02   max: -.4781E+03   T at    2  2   RLX: 0.001
       a =  0.000      CL = -1.7951
      Cm =  0.3013     CD =  2.18872   =>   CDf =  0.00163    CDp =  2.18709

 MRCHDU: Convergence failed at   6  side 2    Res =  0.2359E+01
 MRCHDU: Convergence failed at   7  side 2    Res =  0.3352E+01
 MRCHDU: Convergence failed at   8  side 2    Res =  0.3990E+01
 MRCHDU: Convergence failed at   9  side 2    Res =  0.4387E+01
 MRCHDU: Convergence failed at  10  side 2    Res =  0.4641E+01
 MRCHDU: Convergence failed at  11  side 2    Res =  0.4782E+01
 MRCHDU: Convergence failed at  12  side 2    Res =  0.4855E+01
 MRCHDU: Convergence failed at  13  side 2    Res =  0.4855E+01
 MRCHDU: Convergence failed at  14  side 2    Res =  0.4835E+01
 MRCHDU: Convergence failed at  15  side 2    Res =  0.4763E+01
 MRCHDU: Convergence failed at  16  side 2    Res =  0.4675E+01
 MRCHDU: Convergence failed at  17  side 2    Res =  0.4557E+01
 MRCHDU: Convergence failed at  18  side 2    Res =  0.4425E+01
 MRCHDU: Convergence failed at  19  side 2    Res =  0.4278E+01
 MRCHDU: Convergence failed at  20  side 2    Res =  0.4122E+01
 MRCHDU: Convergence failed at  21  side 2    Res =  0.3947E+01
 MRCHDU: Convergence failed at  48  side 2    Res =  0.1233E-03
 MRCHDU: Convergence failed at  51  side 2    Res =  0.1399E-03
 MRCHDU: Convergence failed at  52  side 2    Res =  0.8671E-04
 MRCHDU: Convergence failed at  53  side 2    Res =  0.7014E-04
 MRCHDU: Convergence failed at  54  side 2    Res =  0.6934E-04
 MRCHDU: Convergence failed at  55  side 2    Res =  0.5403E-04
 MRCHDU: Convergence failed at  56  side 2    Res =  0.7296E-04
 Side 1  free  transition at x/c =  0.7304   30
 Side 2  free  transition at x/c =  0.0055    5

  97   rms: 0.8563E+02   max: -.9562E+02   U at   56  2   RLX: 0.001
       a =  0.000      CL = -1.7455
      Cm =  0.2935     CD =  4.89549   =>   CDf =  0.00170    CDp =  4.89379

 MRCHDU: Convergence failed at   5  side 2    Res =  0.1787E+01
 MRCHDU: Convergence failed at   6  side 2    Res =  0.2720E+01
 MRCHDU: Convergence failed at   7  side 2    Res =  0.3306E+01
 MRCHDU: Convergence failed at   8  side 2    Res =  0.3679E+01
 MRCHDU: Convergence failed at   9  side 2    Res =  0.3909E+01
 MRCHDU: Convergence failed at  10  side 2    Res =  0.4042E+01
 MRCHDU: Convergence failed at  11  side 2    Res =  0.4099E+01
 MRCHDU: Convergence failed at  12  side 2    Res =  0.4104E+01
 MRCHDU: Convergence failed at  13  side 2    Res =  0.4074E+01
 MRCHDU: Convergence failed at  14  side 2    Res =  0.4009E+01
 MRCHDU: Convergence failed at  15  side 2    Res =  0.3918E+01
 MRCHDU: Convergence failed at  16  side 2    Res =  0.3806E+01
 MRCHDU: Convergence failed at  17  side 2    Res =  0.3674E+01
 MRCHDU: Convergence failed at  18  side 2    Res =  0.3533E+01
 MRCHDU: Convergence failed at  19  side 2    Res =  0.3379E+01
 MRCHDU: Convergence failed at  20  side 2    Res =  0.3209E+01
 MRCHDU: Convergence failed at  53  side 2    Res =  0.1743E+01
 MRCHDU: Convergence failed at  54  side 2    Res =  0.6406E+01
 MRCHDU: Convergence failed at  55  side 2    Res =  0.7360E+01
 Side 1  free  transition at x/c =  0.7170   31
 Side 2  free  transition at x/c =  0.0055    4
 idif Ue xi dudx           1  0.94610888      3.84593010E-03   246.00262    
 Uenew xinew           2  2.36072671E-03  9.59634781E-06

  98   rms: 0.1666E+03   max: 0.1977E+04   D at    2  1   RLX: 0.000
       a =  0.000      CL = -1.8010
      Cm =  0.3131     CD =  2.65216   =>   CDf =  0.00143    CDp =  2.65073

 MRCHDU: Convergence failed at   6  side 2    Res =  0.1787E+01
 MRCHDU: Convergence failed at   7  side 2    Res =  0.2697E+01
 MRCHDU: Convergence failed at   8  side 2    Res =  0.3288E+01
 MRCHDU: Convergence failed at   9  side 2    Res =  0.3645E+01
 MRCHDU: Convergence failed at  10  side 2    Res =  0.3879E+01
 MRCHDU: Convergence failed at  11  side 2    Res =  0.4002E+01
 MRCHDU: Convergence failed at  12  side 2    Res =  0.4064E+01
 MRCHDU: Convergence failed at  13  side 2    Res =  0.4064E+01
 MRCHDU: Convergence failed at  14  side 2    Res =  0.4039E+01
 MRCHDU: Convergence failed at  15  side 2    Res =  0.3972E+01
 MRCHDU: Convergence failed at  16  side 2    Res =  0.3886E+01
 MRCHDU: Convergence failed at  17  side 2    Res =  0.3775E+01
 MRCHDU: Convergence failed at  18  side 2    Res =  0.3649E+01
 MRCHDU: Convergence failed at  19  side 2    Res =  0.3511E+01
 MRCHDU: Convergence failed at  20  side 2    Res =  0.3364E+01
 MRCHDU: Convergence failed at  21  side 2    Res =  0.3200E+01
 Side 1  free  transition at x/c =  0.7141   30
 Side 2  free  transition at x/c =  0.0055    5

  99   rms: 0.5008E+02   max: -.5266E+02   U at   56  2   RLX: 0.003
       a =  0.000      CL = -1.7307
      Cm =  0.2946     CD =  1.90526   =>   CDf =  0.00155    CDp =  1.90371

 MRCHDU: Convergence failed at   6  side 2    Res =  0.2815E+01
 MRCHDU: Convergence failed at   7  side 2    Res =  0.3871E+01
 MRCHDU: Convergence failed at   8  side 2    Res =  0.4551E+01
 MRCHDU: Convergence failed at   9  side 2    Res =  0.4976E+01
 MRCHDU: Convergence failed at  10  side 2    Res =  0.5253E+01
 MRCHDU: Convergence failed at  11  side 2    Res =  0.5409E+01
 MRCHDU: Convergence failed at  12  side 2    Res =  0.5491E+01
 MRCHDU: Convergence failed at  13  side 2    Res =  0.5505E+01
 MRCHDU: Convergence failed at  14  side 2    Res =  0.5487E+01
 MRCHDU: Convergence failed at  15  side 2    Res =  0.5424E+01
 MRCHDU: Convergence failed at  16  side 2    Res =  0.5338E+01
 MRCHDU: Convergence failed at  17  side 2    Res =  0.5225E+01
 MRCHDU: Convergence failed at  18  side 2    Res =  0.5094E+01
 MRCHDU: Convergence failed at  19  side 2    Res =  0.4952E+01
 MRCHDU: Convergence failed at  20  side 2    Res =  0.4800E+01
 MRCHDU: Convergence failed at  21  side 2    Res =  0.4633E+01
 MRCHDU: Convergence failed at  47  side 2    Res =  0.3945E-03
 MRCHDU: Convergence failed at  50  side 2    Res =  0.9787E-04
 MRCHDU: Convergence failed at  51  side 2    Res =  0.2309E-03
 MRCHDU: Convergence failed at  52  side 2    Res =  0.2091E+01
 MRCHDU: Convergence failed at  53  side 2    Res =  0.1512E+01
 MRCHDU: Convergence failed at  54  side 2    Res =  0.1847E+01
 MRCHDU: Convergence failed at  55  side 2    Res =  0.2337E+01
 MRCHDU: Convergence failed at  56  side 2    Res =  0.3240E+01
 Side 1  free  transition at x/c =  0.6831   29
 Side 2  free  transition at x/c =  0.0055    5

 100   rms: 0.1985E+03   max: -.2100E+03   U at   56  2   RLX: 0.001
       a =  0.000      CL = -1.7162
      Cm =  0.3074     CD =  5.08935   =>   CDf =  0.00159    CDp =  5.08775

 MRCHDU: Convergence failed at   5  side 2    Res =  0.2559E+01
 MRCHDU: Convergence failed at   6  side 2    Res =  0.3598E+01
 MRCHDU: Convergence failed at   7  side 2    Res =  0.4242E+01
 MRCHDU: Convergence failed at   8  side 2    Res =  0.4663E+01
 MRCHDU: Convergence failed at   9  side 2    Res =  0.4918E+01
 MRCHDU: Convergence failed at  10  side 2    Res =  0.5072E+01
 MRCHDU: Convergence failed at  11  side 2    Res =  0.5137E+01
 MRCHDU: Convergence failed at  12  side 2    Res =  0.5148E+01
 MRCHDU: Convergence failed at  13  side 2    Res =  0.5115E+01
 MRCHDU: Convergence failed at  14  side 2    Res =  0.5047E+01
 MRCHDU: Convergence failed at  15  side 2    Res =  0.4947E+01
 MRCHDU: Convergence failed at  16  side 2    Res =  0.4825E+01
 MRCHDU: Convergence failed at  17  side 2    Res =  0.4678E+01
 MRCHDU: Convergence failed at  18  side 2    Res =  0.4524E+01
 MRCHDU: Convergence failed at  19  side 2    Res =  0.4354E+01
 MRCHDU: Convergence failed at  20  side 2    Res =  0.4167E+01
 MRCHDU: Convergence failed at  51  side 2    Res =  0.1597E-02
 MRCHDU: Convergence failed at  52  side 2    Res =  0.2118E+01
 MRCHDU: Convergence failed at  53  side 2    Res =  0.2087E+01
 MRCHDU: Convergence failed at  54  side 2    Res =  0.2905E+01
 MRCHDU: Convergence failed at  55  side 2    Res =  0.3562E+01
 Side 1  free  transition at x/c =  0.6547   29
 Side 2  free  transition at x/c =  0.0055    4

 101   rms: 0.2292E+03   max: 0.2057E+04   T at    2  1   RLX: 0.000
       a =  0.000      CL = -1.8017
      Cm =  0.3386     CD =  2.47112   =>   CDf =  0.00146    CDp =  2.46966

 MRCHDU: Convergence failed at   5  side 2    Res =  0.2557E+01
 MRCHDU: Convergence failed at   6  side 2    Res =  0.3551E+01
 MRCHDU: Convergence failed at   7  side 2    Res =  0.4195E+01
 MRCHDU: Convergence failed at   8  side 2    Res =  0.4584E+01
 MRCHDU: Convergence failed at   9  side 2    Res =  0.4838E+01
 MRCHDU: Convergence failed at  10  side 2    Res =  0.4972E+01
 MRCHDU: Convergence failed at  11  side 2    Res =  0.5039E+01
 MRCHDU: Convergence failed at  12  side 2    Res =  0.5037E+01
 MRCHDU: Convergence failed at  13  side 2    Res =  0.5008E+01
 MRCHDU: Convergence failed at  14  side 2    Res =  0.4934E+01
 MRCHDU: Convergence failed at  15  side 2    Res =  0.4839E+01
 MRCHDU: Convergence failed at  16  side 2    Res =  0.4716E+01
 MRCHDU: Convergence failed at  17  side 2    Res =  0.4575E+01
 MRCHDU: Convergence failed at  18  side 2    Res =  0.4423E+01
 MRCHDU: Convergence failed at  19  side 2    Res =  0.4259E+01
 MRCHDU: Convergence failed at  20  side 2    Res =  0.4078E+01
 Side 1  free  transition at x/c =  0.6529   29
 Side 2  free  transition at x/c =  0.0055    4
 idif Ue xi dudx           1  0.90098220      4.11874056E-03   218.75188    
 Uenew xinew           2  6.17770180E-02  2.82406807E-04

 102   rms: 0.2006E+03   max: 0.1087E+04   T at   55  2   RLX: 0.001
       a =  0.000      CL = -1.7839
      Cm =  0.3318     CD =  2.30889   =>   CDf =  0.00130    CDp =  2.30759

 MRCHDU: Convergence failed at   6  side 2    Res =  0.2527E+01
 MRCHDU: Convergence failed at   7  side 2    Res =  0.3534E+01
 MRCHDU: Convergence failed at   8  side 2    Res =  0.4196E+01
 MRCHDU: Convergence failed at   9  side 2    Res =  0.4594E+01
 MRCHDU: Convergence failed at  10  side 2    Res =  0.4860E+01
 MRCHDU: Convergence failed at  11  side 2    Res =  0.4999E+01
 MRCHDU: Convergence failed at  12  side 2    Res =  0.5074E+01
 MRCHDU: Convergence failed at  13  side 2    Res =  0.5077E+01
 MRCHDU: Convergence failed at  14  side 2    Res =  0.5056E+01
 MRCHDU: Convergence failed at  15  side 2    Res =  0.4986E+01
 MRCHDU: Convergence failed at  16  side 2    Res =  0.4897E+01
 MRCHDU: Convergence failed at  17  side 2    Res =  0.4780E+01
 MRCHDU: Convergence failed at  18  side 2    Res =  0.4645E+01
 MRCHDU: Convergence failed at  19  side 2    Res =  0.4499E+01
 MRCHDU: Convergence failed at  20  side 2    Res =  0.4344E+01
 MRCHDU: Convergence failed at  21  side 2    Res =  0.4172E+01
 MRCHDU: Convergence failed at  50  side 2    Res =  0.6408E-02
 MRCHDU: Convergence failed at  51  side 2    Res =  0.3700E-02
 MRCHDU: Convergence failed at  52  side 2    Res =  0.3139E-02
[...]
 Side 2  free  transition at x/c =  0.0055    5

 981   rms: 0.3257E+10   max: 0.5819E+11   T at   46  2   RLX: 0.000
       a =  0.000      CL = -2.3564
      Cm =  0.4801     CD =+Infinity   =>   CDf =  0.00120    CDp =+Infinity

 MRCHDU: Convergence failed at   6  side 2    Res =  0.2719E+01
 MRCHDU: Convergence failed at   7  side 2    Res =  0.3836E+01
 MRCHDU: Convergence failed at   8  side 2    Res =  0.4571E+01
 MRCHDU: Convergence failed at   9  side 2    Res =  0.5025E+01
 MRCHDU: Convergence failed at  10  side 2    Res =  0.5325E+01
 MRCHDU: Convergence failed at  11  side 2    Res =  0.5491E+01
 MRCHDU: Convergence failed at  12  side 2    Res =  0.5580E+01
 MRCHDU: Convergence failed at  13  side 2    Res =  0.5593E+01
 MRCHDU: Convergence failed at  14  side 2    Res =  0.5574E+01
 MRCHDU: Convergence failed at  15  side 2    Res =  0.5504E+01
 MRCHDU: Convergence failed at  16  side 2    Res =  0.5410E+01
 MRCHDU: Convergence failed at  17  side 2    Res =  0.5287E+01
 MRCHDU: Convergence failed at  18  side 2    Res =  0.5144E+01
 MRCHDU: Convergence failed at  19  side 2    Res =  0.4988E+01
 MRCHDU: Convergence failed at  20  side 2    Res =  0.4818E+01
 MRCHDU: Convergence failed at  21  side 2    Res =  0.4628E+01
 Side 1  free  transition at x/c =  0.6123   26
 Side 2  free  transition at x/c =  0.0055    5

 982   rms: 0.1386E+10   max: -.2658E+11   T at   46  2   RLX: 0.000
       a =  0.000      CL = -2.3564
      Cm =  0.4801     CD =+Infinity   =>   CDf =  0.00120    CDp =+Infinity

 MRCHDU: Convergence failed at   6  side 2    Res =  0.2719E+01
 MRCHDU: Convergence failed at   7  side 2    Res =  0.3836E+01
 MRCHDU: Convergence failed at   8  side 2    Res =  0.4571E+01
 MRCHDU: Convergence failed at   9  side 2    Res =  0.5025E+01
 MRCHDU: Convergence failed at  10  side 2    Res =  0.5325E+01
 MRCHDU: Convergence failed at  11  side 2    Res =  0.5491E+01
 MRCHDU: Convergence failed at  12  side 2    Res =  0.5580E+01
 MRCHDU: Convergence failed at  13  side 2    Res =  0.5593E+01
 MRCHDU: Convergence failed at  14  side 2    Res =  0.5574E+01
 MRCHDU: Convergence failed at  15  side 2    Res =  0.5504E+01
 MRCHDU: Convergence failed at  16  side 2    Res =  0.5411E+01
 MRCHDU: Convergence failed at  17  side 2    Res =  0.5287E+01
 MRCHDU: Convergence failed at  18  side 2    Res =  0.5144E+01
 MRCHDU: Convergence failed at  19  side 2    Res =  0.4988E+01
 MRCHDU: Convergence failed at  20  side 2    Res =  0.4818E+01
 MRCHDU: Convergence failed at  21  side 2    Res =  0.4628E+01
 Side 1  free  transition at x/c =  0.6123   26
 Side 2  free  transition at x/c =  0.0055    5

 983   rms: 0.5468E+10   max: -.9525E+11   T at   46  2   RLX: 0.000
       a =  0.000      CL = -2.3564
      Cm =  0.4801     CD =+Infinity   =>   CDf =  0.00120    CDp =+Infinity

 MRCHDU: Convergence failed at   6  side 2    Res =  0.2719E+01
 MRCHDU: Convergence failed at   7  side 2    Res =  0.3836E+01
 MRCHDU: Convergence failed at   8  side 2    Res =  0.4571E+01
 MRCHDU: Convergence failed at   9  side 2    Res =  0.5025E+01
 MRCHDU: Convergence failed at  10  side 2    Res =  0.5325E+01
 MRCHDU: Convergence failed at  11  side 2    Res =  0.5491E+01
 MRCHDU: Convergence failed at  12  side 2    Res =  0.5580E+01
 MRCHDU: Convergence failed at  13  side 2    Res =  0.5593E+01
 MRCHDU: Convergence failed at  14  side 2    Res =  0.5574E+01
 MRCHDU: Convergence failed at  15  side 2    Res =  0.5504E+01
 MRCHDU: Convergence failed at  16  side 2    Res =  0.5411E+01
 MRCHDU: Convergence failed at  17  side 2    Res =  0.5287E+01
 MRCHDU: Convergence failed at  18  side 2    Res =  0.5144E+01
 MRCHDU: Convergence failed at  19  side 2    Res =  0.4988E+01
 MRCHDU: Convergence failed at  20  side 2    Res =  0.4818E+01
 MRCHDU: Convergence failed at  21  side 2    Res =  0.4628E+01
 Side 1  free  transition at x/c =  0.6123   26
 Side 2  free  transition at x/c =  0.0055    5

 984   rms: 0.1867E+10   max: 0.2678E+11   T at   48  2   RLX: 0.000
       a =  0.000      CL = -2.3564
      Cm =  0.4801     CD =+Infinity   =>   CDf =  0.00120    CDp =+Infinity

 MRCHDU: Convergence failed at   6  side 2    Res =  0.2719E+01
 MRCHDU: Convergence failed at   7  side 2    Res =  0.3836E+01
 MRCHDU: Convergence failed at   8  side 2    Res =  0.4571E+01
 MRCHDU: Convergence failed at   9  side 2    Res =  0.5025E+01
 MRCHDU: Convergence failed at  10  side 2    Res =  0.5325E+01
 MRCHDU: Convergence failed at  11  side 2    Res =  0.5491E+01
 MRCHDU: Convergence failed at  12  side 2    Res =  0.5580E+01
 MRCHDU: Convergence failed at  13  side 2    Res =  0.5593E+01
 MRCHDU: Convergence failed at  14  side 2    Res =  0.5574E+01
 MRCHDU: Convergence failed at  15  side 2    Res =  0.5504E+01
 MRCHDU: Convergence failed at  16  side 2    Res =  0.5411E+01
 MRCHDU: Convergence failed at  17  side 2    Res =  0.5287E+01
 MRCHDU: Convergence failed at  18  side 2    Res =  0.5144E+01
 MRCHDU: Convergence failed at  19  side 2    Res =  0.4988E+01
 MRCHDU: Convergence failed at  20  side 2    Res =  0.4818E+01
 MRCHDU: Convergence failed at  21  side 2    Res =  0.4628E+01
 Side 1  free  transition at x/c =  0.6123   26
 Side 2  free  transition at x/c =  0.0055    5

 985   rms: 0.6409E+10   max: 0.9478E+11   T at   48  2   RLX: 0.000
       a =  0.000      CL = -2.3564
      Cm =  0.4801     CD =+Infinity   =>   CDf =  0.00120    CDp =+Infinity

 MRCHDU: Convergence failed at   6  side 2    Res =  0.2719E+01
 MRCHDU: Convergence failed at   7  side 2    Res =  0.3836E+01
 MRCHDU: Convergence failed at   8  side 2    Res =  0.4571E+01
 MRCHDU: Convergence failed at   9  side 2    Res =  0.5025E+01
 MRCHDU: Convergence failed at  10  side 2    Res =  0.5325E+01
 MRCHDU: Convergence failed at  11  side 2    Res =  0.5491E+01
 MRCHDU: Convergence failed at  12  side 2    Res =  0.5580E+01
 MRCHDU: Convergence failed at  13  side 2    Res =  0.5593E+01
 MRCHDU: Convergence failed at  14  side 2    Res =  0.5574E+01
 MRCHDU: Convergence failed at  15  side 2    Res =  0.5504E+01
 MRCHDU: Convergence failed at  16  side 2    Res =  0.5411E+01
 MRCHDU: Convergence failed at  17  side 2    Res =  0.5287E+01
 MRCHDU: Convergence failed at  18  side 2    Res =  0.5144E+01
 MRCHDU: Convergence failed at  19  side 2    Res =  0.4988E+01
 MRCHDU: Convergence failed at  20  side 2    Res =  0.4818E+01
 MRCHDU: Convergence failed at  21  side 2    Res =  0.4628E+01
 Side 1  free  transition at x/c =  0.6123   26
 Side 2  free  transition at x/c =  0.0055    5

 986   rms: 0.5910E+10   max: -.1132E+12   T at   46  2   RLX: 0.000
       a =  0.000      CL = -2.3564
      Cm =  0.4801     CD =+Infinity   =>   CDf =  0.00120    CDp =+Infinity

 MRCHDU: Convergence failed at   6  side 2    Res =  0.2719E+01
 MRCHDU: Convergence failed at   7  side 2    Res =  0.3836E+01
 MRCHDU: Convergence failed at   8  side 2    Res =  0.4571E+01
 MRCHDU: Convergence failed at   9  side 2    Res =  0.5025E+01
 MRCHDU: Convergence failed at  10  side 2    Res =  0.5325E+01
 MRCHDU: Convergence failed at  11  side 2    Res =  0.5491E+01
 MRCHDU: Convergence failed at  12  side 2    Res =  0.5580E+01
 MRCHDU: Convergence failed at  13  side 2    Res =  0.5593E+01
 MRCHDU: Convergence failed at  14  side 2    Res =  0.5574E+01
 MRCHDU: Convergence failed at  15  side 2    Res =  0.5504E+01
 MRCHDU: Convergence failed at  16  side 2    Res =  0.5411E+01
 MRCHDU: Convergence failed at  17  side 2    Res =  0.5287E+01
 MRCHDU: Convergence failed at  18  side 2    Res =  0.5144E+01
 MRCHDU: Convergence failed at  19  side 2    Res =  0.4988E+01
 MRCHDU: Convergence failed at  20  side 2    Res =  0.4818E+01
 MRCHDU: Convergence failed at  21  side 2    Res =  0.4628E+01
 Side 1  free  transition at x/c =  0.6123   26
 Side 2  free  transition at x/c =  0.0055    5

 987   rms: 0.5207E+10   max: -.1001E+12   T at   46  2   RLX: 0.000
       a =  0.000      CL = -2.3564
      Cm =  0.4801     CD =+Infinity   =>   CDf =  0.00120    CDp =+Infinity

 MRCHDU: Convergence failed at   6  side 2    Res =  0.2719E+01
 MRCHDU: Convergence failed at   7  side 2    Res =  0.3836E+01
 MRCHDU: Convergence failed at   8  side 2    Res =  0.4571E+01
 MRCHDU: Convergence failed at   9  side 2    Res =  0.5025E+01
 MRCHDU: Convergence failed at  10  side 2    Res =  0.5325E+01
 MRCHDU: Convergence failed at  11  side 2    Res =  0.5491E+01
 MRCHDU: Convergence failed at  12  side 2    Res =  0.5580E+01
 MRCHDU: Convergence failed at  13  side 2    Res =  0.5593E+01
 MRCHDU: Convergence failed at  14  side 2    Res =  0.5574E+01
 MRCHDU: Convergence failed at  15  side 2    Res =  0.5504E+01
 MRCHDU: Convergence failed at  16  side 2    Res =  0.5411E+01
 MRCHDU: Convergence failed at  17  side 2    Res =  0.5287E+01
 MRCHDU: Convergence failed at  18  side 2    Res =  0.5144E+01
 MRCHDU: Convergence failed at  19  side 2    Res =  0.4988E+01
 MRCHDU: Convergence failed at  20  side 2    Res =  0.4818E+01
 MRCHDU: Convergence failed at  21  side 2    Res =  0.4628E+01
 Side 1  free  transition at x/c =  0.6123   26
 Side 2  free  transition at x/c =  0.0055    5

 988   rms: 0.5536E+10   max: 0.1062E+12   T at   48  2   RLX: 0.000
       a =  0.000      CL = -2.3564
      Cm =  0.4801     CD =+Infinity   =>   CDf =  0.00120    CDp =+Infinity

 MRCHDU: Convergence failed at   6  side 2    Res =  0.2719E+01
 MRCHDU: Convergence failed at   7  side 2    Res =  0.3836E+01
 MRCHDU: Convergence failed at   8  side 2    Res =  0.4571E+01
 MRCHDU: Convergence failed at   9  side 2    Res =  0.5025E+01
 MRCHDU: Convergence failed at  10  side 2    Res =  0.5325E+01
 MRCHDU: Convergence failed at  11  side 2    Res =  0.5491E+01
 MRCHDU: Convergence failed at  12  side 2    Res =  0.5580E+01
 MRCHDU: Convergence failed at  13  side 2    Res =  0.5593E+01
 MRCHDU: Convergence failed at  14  side 2    Res =  0.5574E+01
 MRCHDU: Convergence failed at  15  side 2    Res =  0.5504E+01
 MRCHDU: Convergence failed at  16  side 2    Res =  0.5410E+01
 MRCHDU: Convergence failed at  17  side 2    Res =  0.5287E+01
 MRCHDU: Convergence failed at  18  side 2    Res =  0.5144E+01
 MRCHDU: Convergence failed at  19  side 2    Res =  0.4988E+01
 MRCHDU: Convergence failed at  20  side 2    Res =  0.4818E+01
 MRCHDU: Convergence failed at  21  side 2    Res =  0.4628E+01
 Side 1  free  transition at x/c =  0.6123   26
 Side 2  free  transition at x/c =  0.0055    5

 989   rms: 0.4832E+11   max: -.8675E+12   T at   48  2   RLX: 0.000
       a =  0.000      CL = -2.3564
      Cm =  0.4801     CD =+Infinity   =>   CDf =  0.00120    CDp =+Infinity

 MRCHDU: Convergence failed at   6  side 2    Res =  0.2719E+01
 MRCHDU: Convergence failed at   7  side 2    Res =  0.3836E+01
 MRCHDU: Convergence failed at   8  side 2    Res =  0.4571E+01
 MRCHDU: Convergence failed at   9  side 2    Res =  0.5025E+01
 MRCHDU: Convergence failed at  10  side 2    Res =  0.5325E+01
 MRCHDU: Convergence failed at  11  side 2    Res =  0.5491E+01
 MRCHDU: Convergence failed at  12  side 2    Res =  0.5580E+01
 MRCHDU: Convergence failed at  13  side 2    Res =  0.5593E+01
 MRCHDU: Convergence failed at  14  side 2    Res =  0.5574E+01
 MRCHDU: Convergence failed at  15  side 2    Res =  0.5504E+01
 MRCHDU: Convergence failed at  16  side 2    Res =  0.5411E+01
 MRCHDU: Convergence failed at  17  side 2    Res =  0.5287E+01
 MRCHDU: Convergence failed at  18  side 2    Res =  0.5144E+01
 MRCHDU: Convergence failed at  19  side 2    Res =  0.4988E+01
 MRCHDU: Convergence failed at  20  side 2    Res =  0.4818E+01
 MRCHDU: Convergence failed at  21  side 2    Res =  0.4628E+01
 Side 1  free  transition at x/c =  0.6123   26
 Side 2  free  transition at x/c =  0.0055    5

 990   rms: 0.3608E+10   max: 0.6479E+11   T at   48  2   RLX: 0.000
       a =  0.000      CL = -2.3564
      Cm =  0.4801     CD =+Infinity   =>   CDf =  0.00120    CDp =+Infinity

 MRCHDU: Convergence failed at   6  side 2    Res =  0.2719E+01
 MRCHDU: Convergence failed at   7  side 2    Res =  0.3836E+01
 MRCHDU: Convergence failed at   8  side 2    Res =  0.4571E+01
 MRCHDU: Convergence failed at   9  side 2    Res =  0.5025E+01
 MRCHDU: Convergence failed at  10  side 2    Res =  0.5325E+01
 MRCHDU: Convergence failed at  11  side 2    Res =  0.5491E+01
 MRCHDU: Convergence failed at  12  side 2    Res =  0.5580E+01
 MRCHDU: Convergence failed at  13  side 2    Res =  0.5593E+01
 MRCHDU: Convergence failed at  14  side 2    Res =  0.5574E+01
 MRCHDU: Convergence failed at  15  side 2    Res =  0.5504E+01
 MRCHDU: Convergence failed at  16  side 2    Res =  0.5411E+01
 MRCHDU: Convergence failed at  17  side 2    Res =  0.5287E+01
 MRCHDU: Convergence failed at  18  side 2    Res =  0.5144E+01
 MRCHDU: Convergence failed at  19  side 2    Res =  0.4988E+01
 MRCHDU: Convergence failed at  20  side 2    Res =  0.4818E+01
 MRCHDU: Convergence failed at  21  side 2    Res =  0.4628E+01
 Side 1  free  transition at x/c =  0.6123   26
 Side 2  free  transition at x/c =  0.0055    5

 991   rms: 0.3121E+10   max: -.5494E+11   T at   46  2   RLX: 0.000
       a =  0.000      CL = -2.3564
      Cm =  0.4801     CD =+Infinity   =>   CDf =  0.00120    CDp =+Infinity

 MRCHDU: Convergence failed at   6  side 2    Res =  0.2719E+01
 MRCHDU: Convergence failed at   7  side 2    Res =  0.3836E+01
 MRCHDU: Convergence failed at   8  side 2    Res =  0.4571E+01
 MRCHDU: Convergence failed at   9  side 2    Res =  0.5025E+01
 MRCHDU: Convergence failed at  10  side 2    Res =  0.5325E+01
 MRCHDU: Convergence failed at  11  side 2    Res =  0.5491E+01
 MRCHDU: Convergence failed at  12  side 2    Res =  0.5580E+01
 MRCHDU: Convergence failed at  13  side 2    Res =  0.5593E+01
 MRCHDU: Convergence failed at  14  side 2    Res =  0.5574E+01
 MRCHDU: Convergence failed at  15  side 2    Res =  0.5504E+01
 MRCHDU: Convergence failed at  16  side 2    Res =  0.5411E+01
 MRCHDU: Convergence failed at  17  side 2    Res =  0.5287E+01
 MRCHDU: Convergence failed at  18  side 2    Res =  0.5144E+01
 MRCHDU: Convergence failed at  19  side 2    Res =  0.4988E+01
 MRCHDU: Convergence failed at  20  side 2    Res =  0.4818E+01
 MRCHDU: Convergence failed at  21  side 2    Res =  0.4628E+01
 Side 1  free  transition at x/c =  0.6123   26
 Side 2  free  transition at x/c =  0.0055    5

 992   rms: 0.1698E+10   max: -.2833E+11   T at   48  2   RLX: 0.000
       a =  0.000      CL = -2.3564
      Cm =  0.4801     CD =+Infinity   =>   CDf =  0.00120    CDp =+Infinity

 MRCHDU: Convergence failed at   6  side 2    Res =  0.2719E+01
 MRCHDU: Convergence failed at   7  side 2    Res =  0.3836E+01
 MRCHDU: Convergence failed at   8  side 2    Res =  0.4571E+01
 MRCHDU: Convergence failed at   9  side 2    Res =  0.5025E+01
 MRCHDU: Convergence failed at  10  side 2    Res =  0.5325E+01
 MRCHDU: Convergence failed at  11  side 2    Res =  0.5491E+01
 MRCHDU: Convergence failed at  12  side 2    Res =  0.5580E+01
 MRCHDU: Convergence failed at  13  side 2    Res =  0.5593E+01
 MRCHDU: Convergence failed at  14  side 2    Res =  0.5574E+01
 MRCHDU: Convergence failed at  15  side 2    Res =  0.5504E+01
 MRCHDU: Convergence failed at  16  side 2    Res =  0.5411E+01
 MRCHDU: Convergence failed at  17  side 2    Res =  0.5287E+01
 MRCHDU: Convergence failed at  18  side 2    Res =  0.5144E+01
 MRCHDU: Convergence failed at  19  side 2    Res =  0.4988E+01
 MRCHDU: Convergence failed at  20  side 2    Res =  0.4818E+01
 MRCHDU: Convergence failed at  21  side 2    Res =  0.4628E+01
 Side 1  free  transition at x/c =  0.6123   26
 Side 2  free  transition at x/c =  0.0055    5

 993   rms: 0.5031E+09   max: 0.8996E+10   T at   46  2   RLX: 0.000
       a =  0.000      CL = -2.3564
      Cm =  0.4801     CD =+Infinity   =>   CDf =  0.00120    CDp =+Infinity

 MRCHDU: Convergence failed at   6  side 2    Res =  0.2719E+01
 MRCHDU: Convergence failed at   7  side 2    Res =  0.3836E+01
 MRCHDU: Convergence failed at   8  side 2    Res =  0.4571E+01
 MRCHDU: Convergence failed at   9  side 2    Res =  0.5025E+01
 MRCHDU: Convergence failed at  10  side 2    Res =  0.5325E+01
 MRCHDU: Convergence failed at  11  side 2    Res =  0.5491E+01
 MRCHDU: Convergence failed at  12  side 2    Res =  0.5580E+01
 MRCHDU: Convergence failed at  13  side 2    Res =  0.5593E+01
 MRCHDU: Convergence failed at  14  side 2    Res =  0.5574E+01
 MRCHDU: Convergence failed at  15  side 2    Res =  0.5504E+01
 MRCHDU: Convergence failed at  16  side 2    Res =  0.5410E+01
 MRCHDU: Convergence failed at  17  side 2    Res =  0.5287E+01
 MRCHDU: Convergence failed at  18  side 2    Res =  0.5144E+01
 MRCHDU: Convergence failed at  19  side 2    Res =  0.4988E+01
 MRCHDU: Convergence failed at  20  side 2    Res =  0.4818E+01
 MRCHDU: Convergence failed at  21  side 2    Res =  0.4628E+01
 Side 1  free  transition at x/c =  0.6123   26
 Side 2  free  transition at x/c =  0.0055    5

 994   rms: 0.6977E+10   max: -.1189E+12   T at   48  2   RLX: 0.000
       a =  0.000      CL = -2.3564
      Cm =  0.4801     CD =+Infinity   =>   CDf =  0.00120    CDp =+Infinity

 MRCHDU: Convergence failed at   6  side 2    Res =  0.2719E+01
 MRCHDU: Convergence failed at   7  side 2    Res =  0.3836E+01
 MRCHDU: Convergence failed at   8  side 2    Res =  0.4571E+01
 MRCHDU: Convergence failed at   9  side 2    Res =  0.5025E+01
 MRCHDU: Convergence failed at  10  side 2    Res =  0.5325E+01
 MRCHDU: Convergence failed at  11  side 2    Res =  0.5491E+01
 MRCHDU: Convergence failed at  12  side 2    Res =  0.5580E+01
 MRCHDU: Convergence failed at  13  side 2    Res =  0.5593E+01
 MRCHDU: Convergence failed at  14  side 2    Res =  0.5574E+01
 MRCHDU: Convergence failed at  15  side 2    Res =  0.5504E+01
 MRCHDU: Convergence failed at  16  side 2    Res =  0.5410E+01
 MRCHDU: Convergence failed at  17  side 2    Res =  0.5287E+01
 MRCHDU: Convergence failed at  18  side 2    Res =  0.5144E+01
 MRCHDU: Convergence failed at  19  side 2    Res =  0.4988E+01
 MRCHDU: Convergence failed at  20  side 2    Res =  0.4818E+01
 MRCHDU: Convergence failed at  21  side 2    Res =  0.4628E+01
 Side 1  free  transition at x/c =  0.6123   26
 Side 2  free  transition at x/c =  0.0055    5

 995   rms: 0.2603E+10   max: -.4331E+11   T at   48  2   RLX: 0.000
       a =  0.000      CL = -2.3564
      Cm =  0.4801     CD =+Infinity   =>   CDf =  0.00120    CDp =+Infinity

 MRCHDU: Convergence failed at   6  side 2    Res =  0.2719E+01
 MRCHDU: Convergence failed at   7  side 2    Res =  0.3836E+01
 MRCHDU: Convergence failed at   8  side 2    Res =  0.4571E+01
 MRCHDU: Convergence failed at   9  side 2    Res =  0.5025E+01
 MRCHDU: Convergence failed at  10  side 2    Res =  0.5325E+01
 MRCHDU: Convergence failed at  11  side 2    Res =  0.5491E+01
 MRCHDU: Convergence failed at  12  side 2    Res =  0.5580E+01
 MRCHDU: Convergence failed at  13  side 2    Res =  0.5593E+01
 MRCHDU: Convergence failed at  14  side 2    Res =  0.5574E+01
 MRCHDU: Convergence failed at  15  side 2    Res =  0.5504E+01
 MRCHDU: Convergence failed at  16  side 2    Res =  0.5411E+01
 MRCHDU: Convergence failed at  17  side 2    Res =  0.5287E+01
 MRCHDU: Convergence failed at  18  side 2    Res =  0.5144E+01
 MRCHDU: Convergence failed at  19  side 2    Res =  0.4988E+01
 MRCHDU: Convergence failed at  20  side 2    Res =  0.4818E+01
 MRCHDU: Convergence failed at  21  side 2    Res =  0.4628E+01
 Side 1  free  transition at x/c =  0.6123   26
 Side 2  free  transition at x/c =  0.0055    5

 996   rms: 0.6227E+10   max: -.1100E+12   T at   48  2   RLX: 0.000
       a =  0.000      CL = -2.3564
      Cm =  0.4801     CD =+Infinity   =>   CDf =  0.00120    CDp =+Infinity

 MRCHDU: Convergence failed at   6  side 2    Res =  0.2719E+01
 MRCHDU: Convergence failed at   7  side 2    Res =  0.3836E+01
 MRCHDU: Convergence failed at   8  side 2    Res =  0.4571E+01
